<?xml version="1.0" ?>
<routes xmlns:xsi="http://www.w3.org/2001/XMLSchema-instance" xsi:noNamespaceSchemaLocation="http://sumo.dlr.de/xsd/routes_file.xsd">
    <vType id="car" vClass="passenger" color="1,1,0" speedDev="0.1"/>
    <vType id="bus" vClass="bus" color="0,1,0" length="12" width="2.5" speedDev="0.05"/>
    <route id="route_h_west_east_0" edges="h_00_in h_00_01 h_01_02 h_02_out"/>
    <route id="route_h_west_east_1" edges="h_10_in h_10_11 h_11_12 h_12_out"/>
    <route id="route_h_west_east_2" edges="h_20_in h_20_21 h_21_22 h_22_out"/>
    <route id="route_h_east_west_0" edges="h_02_in h_02_01 h_01_00 h_00_out"/>
    <route id="route_h_east_west_1" edges="h_12_in h_12_11 h_11_10 h_10_out"/>
    <route id="route_h_east_west_2" edges="h_22_in h_22_21 h_21_20 h_20_out"/>
    <route id="route_v_north_south_0" edges="v_00_in v_00_10 v_10_20 v_20_out"/>
    <route id="route_v_north_south_1" edges="v_01_in v_01_11 v_11_21 v_21_out"/>
    <route id="route_v_north_south_2" edges="v_02_in v_02_12 v_12_22 v_22_out"/>
    <route id="route_v_south_north_0" edges="v_20_in v_20_10 v_10_00 v_00_out"/>
    <route id="route_v_south_north_1" edges="v_21_in v_21_11 v_11_01 v_01_out"/>
    <route id="route_v_south_north_2" edges="v_22_in v_22_12 v_12_02 v_02_out"/>
    <route id="route_d_nw_se" edges="v_00_in v_00_10 h_10_11 v_11_21 h_21_22 v_22_out"/>
    <route id="route_d_ne_sw" edges="v_02_in v_02_12 h_12_11 v_11_21 h_21_20 v_20_out"/>
    <route id="route_d_sw_ne" edges="v_20_in v_20_10 h_10_11 v_11_01 h_01_02 v_02_out"/>
    <route id="route_d_se_nw" edges="v_22_in v_22_12 h_12_11 v_11_01 h_01_00 v_00_out"/>
    <flow id="cars_route_d_ne_sw" type="car" route="route_d_ne_sw" begin="0" end="1000" probability="0.2"/>
    <flow id="cars_route_d_nw_se" type="car" route="route_d_nw_se" begin="0" end="1000" probability="0.2"/>
    <flow id="cars_route_d_se_nw" type="car" route="route_d_se_nw" begin="0" end="1000" probability="0.2"/>
    <flow id="cars_route_d_sw_ne" type="car" route="route_d_sw_ne" begin="0" end="1000" probability="0.2"/>
    <flow id="cars_route_h_east_west_0" type="car" route="route_h_east_west_0" begin="0" end="1000" probability="0.2"/>
    <flow id="cars_route_h_east_west_1" type="car" route="route_h_east_west_1" begin="0" end="1000" probability="0.2"/>
    <flow id="cars_route_h_east_west_2" type="car" route="route_h_east_west_2" begin="0" end="1000" probability="0.2"/>
    <flow id="cars_route_h_west_east_0" type="car" route="route_h_west_east_0" begin="0" end="1000" probability="0.2"/>
    <flow id="cars_route_h_west_east_1" type="car" route="route_h_west_east_1" begin="0" end="1000" probability="0.2"/>
    <flow id="cars_route_h_west_east_2" type="car" route="route_h_west_east_2" begin="0" end="1000" probability="0.2"/>
    <flow id="cars_route_v_north_south_0" type="car" route="route_v_north_south_0" begin="0" end="1000" probability="0.2"/>
    <flow id="cars_route_v_north_south_1" type="car" route="route_v_north_south_1" begin="0" end="1000" probability="0.2"/>
    <flow id="cars_route_v_north_south_2" type="car" route="route_v_north_south_2" begin="0" end="1000" probability="0.2"/>
    <flow id="cars_route_v_south_north_0" type="car" route="route_v_south_north_0" begin="0" end="1000" probability="0.2"/>
    <flow id="cars_route_v_south_north_1" type="car" route="route_v_south_north_1" begin="0" end="1000" probability="0.2"/>
    <flow id="cars_route_v_south_north_2" type="car" route="route_v_south_north_2" begin="0" end="1000" probability="0.2"/>
    <vehicle id="bus_0" type="bus" route="route_h_west_east_0" depart="13" color="0,1,0"/>
    <vehicle id="bus_99" type="bus" route="route_h_east_west_0" depart="17" color="0,1,0"/>
    <vehicle id="bus_165" type="bus" route="route_h_east_west_2" depart="17" color="0,1,0"/>
    <vehicle id="bus_231" type="bus" route="route_v_north_south_1" depart="17" color="0,1,0"/>
    <vehicle id="bus_330" type="bus" route="route_v_south_north_1" depart="17" color="0,1,0"/>
    <vehicle id="bus_363" type="bus" route="route_v_south_north_2" depart="17" color="0,1,0"/>
    <vehicle id="bus_33" type="bus" route="route_h_west_east_1" depart="18" color="0,1,0"/>
    <vehicle id="bus_264" type="bus" route="route_v_north_south_2" depart="18" color="0,1,0"/>
    <vehicle id="bus_198" type="bus" route="route_v_north_south_0" depart="19" color="0,1,0"/>
    <vehicle id="bus_297" type="bus" route="route_v_south_north_0" depart="19" color="0,1,0"/>
    <vehicle id="bus_132" type="bus" route="route_h_east_west_1" depart="23" color="0,1,0"/>
    <vehicle id="bus_66" type="bus" route="route_h_west_east_2" depart="25" color="0,1,0"/>
    <vehicle id="bus_232" type="bus" route="route_v_north_south_1" depart="45" color="0,1,0"/>
    <vehicle id="bus_67" type="bus" route="route_h_west_east_2" depart="46" color="0,1,0"/>
    <vehicle id="bus_100" type="bus" route="route_h_east_west_0" depart="48" color="0,1,0"/>
    <vehicle id="bus_166" type="bus" route="route_h_east_west_2" depart="49" color="0,1,0"/>
    <vehicle id="bus_1" type="bus" route="route_h_west_east_0" depart="51" color="0,1,0"/>
    <vehicle id="bus_298" type="bus" route="route_v_south_north_0" depart="51" color="0,1,0"/>
    <vehicle id="bus_331" type="bus" route="route_v_south_north_1" depart="53" color="0,1,0"/>
    <vehicle id="bus_265" type="bus" route="route_v_north_south_2" depart="54" color="0,1,0"/>
    <vehicle id="bus_133" type="bus" route="route_h_east_west_1" depart="56" color="0,1,0"/>
    <vehicle id="bus_34" type="bus" route="route_h_west_east_1" depart="57" color="0,1,0"/>
    <vehicle id="bus_364" type="bus" route="route_v_south_north_2" depart="57" color="0,1,0"/>
    <vehicle id="bus_199" type="bus" route="route_v_north_south_0" depart="60" color="0,1,0"/>
    <vehicle id="bus_68" type="bus" route="route_h_west_east_2" depart="73" color="0,1,0"/>
    <vehicle id="bus_35" type="bus" route="route_h_west_east_1" depart="77" color="0,1,0"/>
    <vehicle id="bus_167" type="bus" route="route_h_east_west_2" depart="77" color="0,1,0"/>
    <vehicle id="bus_266" type="bus" route="route_v_north_south_2" depart="77" color="0,1,0"/>
    <vehicle id="bus_299" type="bus" route="route_v_south_north_0" depart="78" color="0,1,0"/>
    <vehicle id="bus_233" type="bus" route="route_v_north_south_1" depart="81" color="0,1,0"/>
    <vehicle id="bus_332" type="bus" route="route_v_south_north_1" depart="83" color="0,1,0"/>
    <vehicle id="bus_101" type="bus" route="route_h_east_west_0" depart="86" color="0,1,0"/>
    <vehicle id="bus_200" type="bus" route="route_v_north_south_0" depart="86" color="0,1,0"/>
    <vehicle id="bus_365" type="bus" route="route_v_south_north_2" depart="87" color="0,1,0"/>
    <vehicle id="bus_2" type="bus" route="route_h_west_east_0" depart="89" color="0,1,0"/>
    <vehicle id="bus_134" type="bus" route="route_h_east_west_1" depart="89" color="0,1,0"/>
    <vehicle id="bus_168" type="bus" route="route_h_east_west_2" depart="100" color="0,1,0"/>
    <vehicle id="bus_366" type="bus" route="route_v_south_north_2" depart="101" color="0,1,0"/>
    <vehicle id="bus_36" type="bus" route="route_h_west_east_1" depart="103" color="0,1,0"/>
    <vehicle id="bus_333" type="bus" route="route_v_south_north_1" depart="104" color="0,1,0"/>
    <vehicle id="bus_102" type="bus" route="route_h_east_west_0" depart="105" color="0,1,0"/>
    <vehicle id="bus_201" type="bus" route="route_v_north_south_0" depart="106" color="0,1,0"/>
    <vehicle id="bus_234" type="bus" route="route_v_north_south_1" depart="107" color="0,1,0"/>
    <vehicle id="bus_3" type="bus" route="route_h_west_east_0" depart="108" color="0,1,0"/>
    <vehicle id="bus_69" type="bus" route="route_h_west_east_2" depart="108" color="0,1,0"/>
    <vehicle id="bus_300" type="bus" route="route_v_south_north_0" depart="109" color="0,1,0"/>
    <vehicle id="bus_135" type="bus" route="route_h_east_west_1" depart="111" color="0,1,0"/>
    <vehicle id="bus_267" type="bus" route="route_v_north_south_2" depart="111" color="0,1,0"/>
    <vehicle id="bus_235" type="bus" route="route_v_north_south_1" depart="130" color="0,1,0"/>
    <vehicle id="bus_367" type="bus" route="route_v_south_north_2" depart="130" color="0,1,0"/>
    <vehicle id="bus_334" type="bus" route="route_v_south_north_1" depart="131" color="0,1,0"/>
    <vehicle id="bus_169" type="bus" route="route_h_east_west_2" depart="132" color="0,1,0"/>
    <vehicle id="bus_4" type="bus" route="route_h_west_east_0" depart="138" color="0,1,0"/>
    <vehicle id="bus_136" type="bus" route="route_h_east_west_1" depart="138" color="0,1,0"/>
    <vehicle id="bus_268" type="bus" route="route_v_north_south_2" depart="138" color="0,1,0"/>
    <vehicle id="bus_70" type="bus" route="route_h_west_east_2" depart="139" color="0,1,0"/>
    <vehicle id="bus_301" type="bus" route="route_v_south_north_0" depart="142" color="0,1,0"/>
    <vehicle id="bus_37" type="bus" route="route_h_west_east_1" depart="144" color="0,1,0"/>
    <vehicle id="bus_103" type="bus" route="route_h_east_west_0" depart="147" color="0,1,0"/>
    <vehicle id="bus_202" type="bus" route="route_v_north_south_0" depart="150" color="0,1,0"/>
    <vehicle id="bus_38" type="bus" route="route_h_west_east_1" depart="160" color="0,1,0"/>
    <vehicle id="bus_368" type="bus" route="route_v_south_north_2" depart="160" color="0,1,0"/>
    <vehicle id="bus_269" type="bus" route="route_v_north_south_2" depart="162" color="0,1,0"/>
    <vehicle id="bus_104" type="bus" route="route_h_east_west_0" depart="164" color="0,1,0"/>
    <vehicle id="bus_335" type="bus" route="route_v_south_north_1" depart="165" color="0,1,0"/>
    <vehicle id="bus_170" type="bus" route="route_h_east_west_2" depart="169" color="0,1,0"/>
    <vehicle id="bus_236" type="bus" route="route_v_north_south_1" depart="170" color="0,1,0"/>
    <vehicle id="bus_302" type="bus" route="route_v_south_north_0" depart="173" color="0,1,0"/>
    <vehicle id="bus_203" type="bus" route="route_v_north_south_0" depart="175" color="0,1,0"/>
    <vehicle id="bus_137" type="bus" route="route_h_east_west_1" depart="176" color="0,1,0"/>
    <vehicle id="bus_5" type="bus" route="route_h_west_east_0" depart="178" color="0,1,0"/>
    <vehicle id="bus_71" type="bus" route="route_h_west_east_2" depart="178" color="0,1,0"/>
    <vehicle id="bus_105" type="bus" route="route_h_east_west_0" depart="190" color="0,1,0"/>
    <vehicle id="bus_6" type="bus" route="route_h_west_east_0" depart="195" color="0,1,0"/>
    <vehicle id="bus_72" type="bus" route="route_h_west_east_2" depart="195" color="0,1,0"/>
    <vehicle id="bus_336" type="bus" route="route_v_south_north_1" depart="197" color="0,1,0"/>
    <vehicle id="bus_303" type="bus" route="route_v_south_north_0" depart="198" color="0,1,0"/>
    <vehicle id="bus_204" type="bus" route="route_v_north_south_0" depart="202" color="0,1,0"/>
    <vehicle id="bus_270" type="bus" route="route_v_north_south_2" depart="205" color="0,1,0"/>
    <vehicle id="bus_369" type="bus" route="route_v_south_north_2" depart="205" color="0,1,0"/>
    <vehicle id="bus_171" type="bus" route="route_h_east_west_2" depart="207" color="0,1,0"/>
    <vehicle id="bus_237" type="bus" route="route_v_north_south_1" depart="207" color="0,1,0"/>
    <vehicle id="bus_39" type="bus" route="route_h_west_east_1" depart="209" color="0,1,0"/>
    <vehicle id="bus_138" type="bus" route="route_h_east_west_1" depart="209" color="0,1,0"/>
    <vehicle id="bus_106" type="bus" route="route_h_east_west_0" depart="220" color="0,1,0"/>
    <vehicle id="bus_205" type="bus" route="route_v_north_south_0" depart="220" color="0,1,0"/>
    <vehicle id="bus_40" type="bus" route="route_h_west_east_1" depart="221" color="0,1,0"/>
    <vehicle id="bus_370" type="bus" route="route_v_south_north_2" depart="225" color="0,1,0"/>
    <vehicle id="bus_271" type="bus" route="route_v_north_south_2" depart="227" color="0,1,0"/>
    <vehicle id="bus_238" type="bus" route="route_v_north_south_1" depart="228" color="0,1,0"/>
    <vehicle id="bus_73" type="bus" route="route_h_west_east_2" depart="230" color="0,1,0"/>
    <vehicle id="bus_337" type="bus" route="route_v_south_north_1" depart="231" color="0,1,0"/>
    <vehicle id="bus_7" type="bus" route="route_h_west_east_0" depart="234" color="0,1,0"/>
    <vehicle id="bus_172" type="bus" route="route_h_east_west_2" depart="234" color="0,1,0"/>
    <vehicle id="bus_139" type="bus" route="route_h_east_west_1" depart="238" color="0,1,0"/>
    <vehicle id="bus_304" type="bus" route="route_v_south_north_0" depart="238" color="0,1,0"/>
    <vehicle id="bus_8" type="bus" route="route_h_west_east_0" depart="259" color="0,1,0"/>
    <vehicle id="bus_239" type="bus" route="route_v_north_south_1" depart="259" color="0,1,0"/>
    <vehicle id="bus_140" type="bus" route="route_h_east_west_1" depart="260" color="0,1,0"/>
    <vehicle id="bus_305" type="bus" route="route_v_south_north_0" depart="261" color="0,1,0"/>
    <vehicle id="bus_338" type="bus" route="route_v_south_north_1" depart="262" color="0,1,0"/>
    <vehicle id="bus_371" type="bus" route="route_v_south_north_2" depart="263" color="0,1,0"/>
    <vehicle id="bus_107" type="bus" route="route_h_east_west_0" depart="265" color="0,1,0"/>
    <vehicle id="bus_173" type="bus" route="route_h_east_west_2" depart="266" color="0,1,0"/>
    <vehicle id="bus_41" type="bus" route="route_h_west_east_1" depart="267" color="0,1,0"/>
    <vehicle id="bus_206" type="bus" route="route_v_north_south_0" depart="268" color="0,1,0"/>
    <vehicle id="bus_272" type="bus" route="route_v_north_south_2" depart="268" color="0,1,0"/>
    <vehicle id="bus_74" type="bus" route="route_h_west_east_2" depart="270" color="0,1,0"/>
    <vehicle id="bus_174" type="bus" route="route_h_east_west_2" depart="280" color="0,1,0"/>
    <vehicle id="bus_240" type="bus" route="route_v_north_south_1" depart="281" color="0,1,0"/>
    <vehicle id="bus_141" type="bus" route="route_h_east_west_1" depart="282" color="0,1,0"/>
    <vehicle id="bus_9" type="bus" route="route_h_west_east_0" depart="286" color="0,1,0"/>
    <vehicle id="bus_207" type="bus" route="route_v_north_south_0" depart="288" color="0,1,0"/>
    <vehicle id="bus_273" type="bus" route="route_v_north_south_2" depart="290" color="0,1,0"/>
    <vehicle id="bus_339" type="bus" route="route_v_south_north_1" depart="290" color="0,1,0"/>
    <vehicle id="bus_372" type="bus" route="route_v_south_north_2" depart="292" color="0,1,0"/>
    <vehicle id="bus_306" type="bus" route="route_v_south_north_0" depart="296" color="0,1,0"/>
    <vehicle id="bus_42" type="bus" route="route_h_west_east_1" depart="297" color="0,1,0"/>
    <vehicle id="bus_75" type="bus" route="route_h_west_east_2" depart="297" color="0,1,0"/>
    <vehicle id="bus_108" type="bus" route="route_h_east_west_0" depart="299" color="0,1,0"/>
    <vehicle id="bus_241" type="bus" route="route_v_north_south_1" depart="313" color="0,1,0"/>
    <vehicle id="bus_340" type="bus" route="route_v_south_north_1" depart="315" color="0,1,0"/>
    <vehicle id="bus_142" type="bus" route="route_h_east_west_1" depart="316" color="0,1,0"/>
    <vehicle id="bus_43" type="bus" route="route_h_west_east_1" depart="319" color="0,1,0"/>
    <vehicle id="bus_76" type="bus" route="route_h_west_east_2" depart="319" color="0,1,0"/>
    <vehicle id="bus_175" type="bus" route="route_h_east_west_2" depart="323" color="0,1,0"/>
    <vehicle id="bus_307" type="bus" route="route_v_south_north_0" depart="323" color="0,1,0"/>
    <vehicle id="bus_373" type="bus" route="route_v_south_north_2" depart="323" color="0,1,0"/>
    <vehicle id="bus_109" type="bus" route="route_h_east_west_0" depart="325" color="0,1,0"/>
    <vehicle id="bus_274" type="bus" route="route_v_north_south_2" depart="325" color="0,1,0"/>
    <vehicle id="bus_10" type="bus" route="route_h_west_east_0" depart="327" color="0,1,0"/>
    <vehicle id="bus_208" type="bus" route="route_v_north_south_0" depart="330" color="0,1,0"/>
    <vehicle id="bus_143" type="bus" route="route_h_east_west_1" depart="340" color="0,1,0"/>
    <vehicle id="bus_77" type="bus" route="route_h_west_east_2" depart="343" color="0,1,0"/>
    <vehicle id="bus_110" type="bus" route="route_h_east_west_0" depart="343" color="0,1,0"/>
    <vehicle id="bus_44" type="bus" route="route_h_west_east_1" depart="348" color="0,1,0"/>
    <vehicle id="bus_176" type="bus" route="route_h_east_west_2" depart="350" color="0,1,0"/>
    <vehicle id="bus_374" type="bus" route="route_v_south_north_2" depart="351" color="0,1,0"/>
    <vehicle id="bus_308" type="bus" route="route_v_south_north_0" depart="352" color="0,1,0"/>
    <vehicle id="bus_242" type="bus" route="route_v_north_south_1" depart="353" color="0,1,0"/>
    <vehicle id="bus_275" type="bus" route="route_v_north_south_2" depart="353" color="0,1,0"/>
    <vehicle id="bus_11" type="bus" route="route_h_west_east_0" depart="354" color="0,1,0"/>
    <vehicle id="bus_209" type="bus" route="route_v_north_south_0" depart="358" color="0,1,0"/>
    <vehicle id="bus_341" type="bus" route="route_v_south_north_1" depart="358" color="0,1,0"/>
    <vehicle id="bus_111" type="bus" route="route_h_east_west_0" depart="370" color="0,1,0"/>
    <vehicle id="bus_309" type="bus" route="route_v_south_north_0" depart="372" color="0,1,0"/>
    <vehicle id="bus_276" type="bus" route="route_v_north_south_2" depart="375" color="0,1,0"/>
    <vehicle id="bus_144" type="bus" route="route_h_east_west_1" depart="376" color="0,1,0"/>
    <vehicle id="bus_177" type="bus" route="route_h_east_west_2" depart="378" color="0,1,0"/>
    <vehicle id="bus_210" type="bus" route="route_v_north_south_0" depart="378" color="0,1,0"/>
    <vehicle id="bus_342" type="bus" route="route_v_south_north_1" depart="379" color="0,1,0"/>
    <vehicle id="bus_45" type="bus" route="route_h_west_east_1" depart="381" color="0,1,0"/>
    <vehicle id="bus_12" type="bus" route="route_h_west_east_0" depart="383" color="0,1,0"/>
    <vehicle id="bus_375" type="bus" route="route_v_south_north_2" depart="383" color="0,1,0"/>
    <vehicle id="bus_243" type="bus" route="route_v_north_south_1" depart="384" color="0,1,0"/>
    <vehicle id="bus_78" type="bus" route="route_h_west_east_2" depart="390" color="0,1,0"/>
    <vehicle id="bus_145" type="bus" route="route_h_east_west_1" depart="400" color="0,1,0"/>
    <vehicle id="bus_79" type="bus" route="route_h_west_east_2" depart="403" color="0,1,0"/>
    <vehicle id="bus_376" type="bus" route="route_v_south_north_2" depart="406" color="0,1,0"/>
    <vehicle id="bus_343" type="bus" route="route_v_south_north_1" depart="408" color="0,1,0"/>
    <vehicle id="bus_244" type="bus" route="route_v_north_south_1" depart="409" color="0,1,0"/>
    <vehicle id="bus_13" type="bus" route="route_h_west_east_0" depart="410" color="0,1,0"/>
    <vehicle id="bus_211" type="bus" route="route_v_north_south_0" depart="411" color="0,1,0"/>
    <vehicle id="bus_46" type="bus" route="route_h_west_east_1" depart="412" color="0,1,0"/>
    <vehicle id="bus_277" type="bus" route="route_v_north_south_2" depart="416" color="0,1,0"/>
    <vehicle id="bus_112" type="bus" route="route_h_east_west_0" depart="417" color="0,1,0"/>
    <vehicle id="bus_310" type="bus" route="route_v_south_north_0" depart="417" color="0,1,0"/>
    <vehicle id="bus_178" type="bus" route="route_h_east_west_2" depart="419" color="0,1,0"/>
    <vehicle id="bus_14" type="bus" route="route_h_west_east_0" depart="430" color="0,1,0"/>
    <vehicle id="bus_80" type="bus" route="route_h_west_east_2" depart="430" color="0,1,0"/>
    <vehicle id="bus_179" type="bus" route="route_h_east_west_2" depart="431" color="0,1,0"/>
    <vehicle id="bus_344" type="bus" route="route_v_south_north_1" depart="433" color="0,1,0"/>
    <vehicle id="bus_278" type="bus" route="route_v_north_south_2" depart="437" color="0,1,0"/>
    <vehicle id="bus_245" type="bus" route="route_v_north_south_1" depart="439" color="0,1,0"/>
    <vehicle id="bus_377" type="bus" route="route_v_south_north_2" depart="440" color="0,1,0"/>
    <vehicle id="bus_212" type="bus" route="route_v_north_south_0" depart="442" color="0,1,0"/>
    <vehicle id="bus_47" type="bus" route="route_h_west_east_1" depart="443" color="0,1,0"/>
    <vehicle id="bus_146" type="bus" route="route_h_east_west_1" depart="443" color="0,1,0"/>
    <vehicle id="bus_113" type="bus" route="route_h_east_west_0" depart="448" color="0,1,0"/>
    <vehicle id="bus_311" type="bus" route="route_v_south_north_0" depart="450" color="0,1,0"/>
    <vehicle id="bus_213" type="bus" route="route_v_north_south_0" depart="460" color="0,1,0"/>
    <vehicle id="bus_345" type="bus" route="route_v_south_north_1" depart="460" color="0,1,0"/>
    <vehicle id="bus_15" type="bus" route="route_h_west_east_0" depart="463" color="0,1,0"/>
    <vehicle id="bus_81" type="bus" route="route_h_west_east_2" depart="465" color="0,1,0"/>
    <vehicle id="bus_279" type="bus" route="route_v_north_south_2" depart="467" color="0,1,0"/>
    <vehicle id="bus_147" type="bus" route="route_h_east_west_1" depart="468" color="0,1,0"/>
    <vehicle id="bus_246" type="bus" route="route_v_north_south_1" depart="468" color="0,1,0"/>
    <vehicle id="bus_48" type="bus" route="route_h_west_east_1" depart="471" color="0,1,0"/>
    <vehicle id="bus_378" type="bus" route="route_v_south_north_2" depart="472" color="0,1,0"/>
    <vehicle id="bus_114" type="bus" route="route_h_east_west_0" depart="475" color="0,1,0"/>
    <vehicle id="bus_312" type="bus" route="route_v_south_north_0" depart="476" color="0,1,0"/>
    <vehicle id="bus_180" type="bus" route="route_h_east_west_2" depart="478" color="0,1,0"/>
    <vehicle id="bus_247" type="bus" route="route_v_north_south_1" depart="492" color="0,1,0"/>
    <vehicle id="bus_313" type="bus" route="route_v_south_north_0" depart="494" color="0,1,0"/>
    <vehicle id="bus_49" type="bus" route="route_h_west_east_1" depart="496" color="0,1,0"/>
    <vehicle id="bus_379" type="bus" route="route_v_south_north_2" depart="496" color="0,1,0"/>
    <vehicle id="bus_16" type="bus" route="route_h_west_east_0" depart="498" color="0,1,0"/>
    <vehicle id="bus_115" type="bus" route="route_h_east_west_0" depart="498" color="0,1,0"/>
    <vehicle id="bus_181" type="bus" route="route_h_east_west_2" depart="498" color="0,1,0"/>
    <vehicle id="bus_280" type="bus" route="route_v_north_south_2" depart="498" color="0,1,0"/>
    <vehicle id="bus_82" type="bus" route="route_h_west_east_2" depart="501" color="0,1,0"/>
    <vehicle id="bus_148" type="bus" route="route_h_east_west_1" depart="504" color="0,1,0"/>
    <vehicle id="bus_214" type="bus" route="route_v_north_south_0" depart="507" color="0,1,0"/>
    <vehicle id="bus_346" type="bus" route="route_v_south_north_1" depart="510" color="0,1,0"/>
    <vehicle id="bus_281" type="bus" route="route_v_north_south_2" depart="520" color="0,1,0"/>
    <vehicle id="bus_215" type="bus" route="route_v_north_south_0" depart="521" color="0,1,0"/>
    <vehicle id="bus_116" type="bus" route="route_h_east_west_0" depart="522" color="0,1,0"/>
    <vehicle id="bus_314" type="bus" route="route_v_south_north_0" depart="523" color="0,1,0"/>
    <vehicle id="bus_182" type="bus" route="route_h_east_west_2" depart="526" color="0,1,0"/>
    <vehicle id="bus_248" type="bus" route="route_v_north_south_1" depart="528" color="0,1,0"/>
    <vehicle id="bus_17" type="bus" route="route_h_west_east_0" depart="530" color="0,1,0"/>
    <vehicle id="bus_380" type="bus" route="route_v_south_north_2" depart="531" color="0,1,0"/>
    <vehicle id="bus_50" type="bus" route="route_h_west_east_1" depart="537" color="0,1,0"/>
    <vehicle id="bus_83" type="bus" route="route_h_west_east_2" depart="537" color="0,1,0"/>
    <vehicle id="bus_347" type="bus" route="route_v_south_north_1" depart="538" color="0,1,0"/>
    <vehicle id="bus_149" type="bus" route="route_h_east_west_1" depart="539" color="0,1,0"/>
    <vehicle id="bus_282" type="bus" route="route_v_north_south_2" depart="551" color="0,1,0"/>
    <vehicle id="bus_381" type="bus" route="route_v_south_north_2" depart="551" color="0,1,0"/>
    <vehicle id="bus_348" type="bus" route="route_v_south_north_1" depart="553" color="0,1,0"/>
    <vehicle id="bus_150" type="bus" route="route_h_east_west_1" depart="554" color="0,1,0"/>
    <vehicle id="bus_18" type="bus" route="route_h_west_east_0" depart="555" color="0,1,0"/>
    <vehicle id="bus_249" type="bus" route="route_v_north_south_1" depart="558" color="0,1,0"/>
    <vehicle id="bus_51" type="bus" route="route_h_west_east_1" depart="560" color="0,1,0"/>
    <vehicle id="bus_183" type="bus" route="route_h_east_west_2" depart="560" color="0,1,0"/>
    <vehicle id="bus_315" type="bus" route="route_v_south_north_0" depart="561" color="0,1,0"/>
    <vehicle id="bus_117" type="bus" route="route_h_east_west_0" depart="565" color="0,1,0"/>
    <vehicle id="bus_84" type="bus" route="route_h_west_east_2" depart="566" color="0,1,0"/>
    <vehicle id="bus_216" type="bus" route="route_v_north_south_0" depart="568" color="0,1,0"/>
    <vehicle id="bus_382" type="bus" route="route_v_south_north_2" depart="583" color="0,1,0"/>
    <vehicle id="bus_19" type="bus" route="route_h_west_east_0" depart="584" color="0,1,0"/>
    <vehicle id="bus_118" type="bus" route="route_h_east_west_0" depart="585" color="0,1,0"/>
    <vehicle id="bus_52" type="bus" route="route_h_west_east_1" depart="592" color="0,1,0"/>
    <vehicle id="bus_151" type="bus" route="route_h_east_west_1" depart="593" color="0,1,0"/>
    <vehicle id="bus_283" type="bus" route="route_v_north_south_2" depart="593" color="0,1,0"/>
    <vehicle id="bus_184" type="bus" route="route_h_east_west_2" depart="594" color="0,1,0"/>
    <vehicle id="bus_85" type="bus" route="route_h_west_east_2" depart="595" color="0,1,0"/>
    <vehicle id="bus_217" type="bus" route="route_v_north_south_0" depart="596" color="0,1,0"/>
    <vehicle id="bus_316" type="bus" route="route_v_south_north_0" depart="596" color="0,1,0"/>
    <vehicle id="bus_250" type="bus" route="route_v_north_south_1" depart="600" color="0,1,0"/>
    <vehicle id="bus_349" type="bus" route="route_v_south_north_1" depart="600" color="0,1,0"/>
    <vehicle id="bus_152" type="bus" route="route_h_east_west_1" depart="610" color="0,1,0"/>
    <vehicle id="bus_350" type="bus" route="route_v_south_north_1" depart="610" color="0,1,0"/>
    <vehicle id="bus_53" type="bus" route="route_h_west_east_1" depart="612" color="0,1,0"/>
    <vehicle id="bus_251" type="bus" route="route_v_north_south_1" depart="613" color="0,1,0"/>
    <vehicle id="bus_185" type="bus" route="route_h_east_west_2" depart="618" color="0,1,0"/>
    <vehicle id="bus_284" type="bus" route="route_v_north_south_2" depart="624" color="0,1,0"/>
    <vehicle id="bus_383" type="bus" route="route_v_south_north_2" depart="624" color="0,1,0"/>
    <vehicle id="bus_20" type="bus" route="route_h_west_east_0" depart="625" color="0,1,0"/>
    <vehicle id="bus_86" type="bus" route="route_h_west_east_2" depart="626" color="0,1,0"/>
    <vehicle id="bus_317" type="bus" route="route_v_south_north_0" depart="628" color="0,1,0"/>
    <vehicle id="bus_119" type="bus" route="route_h_east_west_0" depart="630" color="0,1,0"/>
    <vehicle id="bus_218" type="bus" route="route_v_north_south_0" depart="630" color="0,1,0"/>
    <vehicle id="bus_54" type="bus" route="route_h_west_east_1" depart="641" color="0,1,0"/>
    <vehicle id="bus_120" type="bus" route="route_h_east_west_0" depart="643" color="0,1,0"/>
    <vehicle id="bus_186" type="bus" route="route_h_east_west_2" depart="643" color="0,1,0"/>
    <vehicle id="bus_219" type="bus" route="route_v_north_south_0" depart="643" color="0,1,0"/>
    <vehicle id="bus_87" type="bus" route="route_h_west_east_2" depart="648" color="0,1,0"/>
    <vehicle id="bus_285" type="bus" route="route_v_north_south_2" depart="649" color="0,1,0"/>
    <vehicle id="bus_318" type="bus" route="route_v_south_north_0" depart="649" color="0,1,0"/>
    <vehicle id="bus_21" type="bus" route="route_h_west_east_0" depart="652" color="0,1,0"/>
    <vehicle id="bus_252" type="bus" route="route_v_north_south_1" depart="656" color="0,1,0"/>
    <vehicle id="bus_384" type="bus" route="route_v_south_north_2" depart="657" color="0,1,0"/>
    <vehicle id="bus_351" type="bus" route="route_v_south_north_1" depart="658" color="0,1,0"/>
    <vehicle id="bus_153" type="bus" route="route_h_east_west_1" depart="659" color="0,1,0"/>
    <vehicle id="bus_88" type="bus" route="route_h_west_east_2" depart="670" color="0,1,0"/>
    <vehicle id="bus_187" type="bus" route="route_h_east_west_2" depart="674" color="0,1,0"/>
    <vehicle id="bus_22" type="bus" route="route_h_west_east_0" depart="679" color="0,1,0"/>
    <vehicle id="bus_352" type="bus" route="route_v_south_north_1" depart="679" color="0,1,0"/>
    <vehicle id="bus_319" type="bus" route="route_v_south_north_0" depart="681" color="0,1,0"/>
    <vehicle id="bus_220" type="bus" route="route_v_north_south_0" depart="683" color="0,1,0"/>
    <vehicle id="bus_286" type="bus" route="route_v_north_south_2" depart="684" color="0,1,0"/>
    <vehicle id="bus_121" type="bus" route="route_h_east_west_0" depart="685" color="0,1,0"/>
    <vehicle id="bus_154" type="bus" route="route_h_east_west_1" depart="685" color="0,1,0"/>
    <vehicle id="bus_385" type="bus" route="route_v_south_north_2" depart="685" color="0,1,0"/>
    <vehicle id="bus_55" type="bus" route="route_h_west_east_1" depart="687" color="0,1,0"/>
    <vehicle id="bus_253" type="bus" route="route_v_north_south_1" depart="689" color="0,1,0"/>
    <vehicle id="bus_155" type="bus" route="route_h_east_west_1" depart="700" color="0,1,0"/>
    <vehicle id="bus_287" type="bus" route="route_v_north_south_2" depart="700" color="0,1,0"/>
    <vehicle id="bus_23" type="bus" route="route_h_west_east_0" depart="701" color="0,1,0"/>