<?xml version="1.0" encoding="UTF-8"?>

<!-- generated on 2025-11-09 23:40:49 by Eclipse SUMO netconvert Version 1.24.0
<netconvertConfiguration xmlns:xsi="http://www.w3.org/2001/XMLSchema-instance" xsi:noNamespaceSchemaLocation="http://sumo.dlr.de/xsd/netconvertConfiguration.xsd">

    <input>
        <node-files value="advanced.nod.xml"/>
        <edge-files value="advanced.edg.xml"/>
    </input>

    <output>
        <output-file value="advanced.net.xml"/>
    </output>

</netconvertConfiguration>
-->

<net version="1.20" junctionCornerDetail="5" limitTurnSpeed="5.50" xmlns:xsi="http://www.w3.org/2001/XMLSchema-instance" xsi:noNamespaceSchemaLocation="http://sumo.dlr.de/xsd/net_file.xsd">

    <location netOffset="400.00,400.00" convBoundary="0.00,0.00,800.00,800.00" origBoundary="-400.00,-400.00,400.00,400.00" projParameter="!"/>

    <edge id=":n_east_0_0" function="internal">
        <lane id=":n_east_0_0_0" index="0" speed="3.65" length="4.67" shape="800.00,598.40 801.20,599.20 801.60,600.00 801.20,600.80 800.00,601.60"/>
    </edge>
    <edge id=":n_east_1_0" function="internal">
        <lane id=":n_east_1_0_0" index="0" speed="3.65" length="4.67" shape="800.00,398.40 801.20,399.20 801.60,400.00 801.20,400.80 800.00,401.60"/>
    </edge>
    <edge id=":n_east_2_0" function="internal">
        <lane id=":n_east_2_0_0" index="0" speed="3.65" length="4.67" shape="800.00,198.40 801.20,199.20 801.60,200.00 801.20,200.80 800.00,201.60"/>
    </edge>
    <edge id=":n_north_0_0" function="internal">
        <lane id=":n_north_0_0_0" index="0" speed="3.65" length="4.67" shape="201.60,800.00 200.80,801.20 200.00,801.60 199.20,801.20 198.40,800.00"/>
    </edge>
    <edge id=":n_north_1_0" function="internal">
        <lane id=":n_north_1_0_0" index="0" speed="3.65" length="4.67" shape="401.60,800.00 400.80,801.20 400.00,801.60 399.20,801.20 398.40,800.00"/>
    </edge>
    <edge id=":n_north_2_0" function="internal">
        <lane id=":n_north_2_0_0" index="0" speed="3.65" length="4.67" shape="601.60,800.00 600.80,801.20 600.00,801.60 599.20,801.20 598.40,800.00"/>
    </edge>
    <edge id=":n_south_0_0" function="internal">
        <lane id=":n_south_0_0_0" index="0" speed="3.65" length="4.67" shape="198.40,0.00 199.20,-1.20 200.00,-1.60 200.80,-1.20 201.60,0.00"/>
    </edge>
    <edge id=":n_south_1_0" function="internal">
        <lane id=":n_south_1_0_0" index="0" speed="3.65" length="4.67" shape="398.40,0.00 399.20,-1.20 400.00,-1.60 400.80,-1.20 401.60,0.00"/>
    </edge>
    <edge id=":n_south_2_0" function="internal">
        <lane id=":n_south_2_0_0" index="0" speed="3.65" length="4.67" shape="598.40,0.00 599.20,-1.20 600.00,-1.60 600.80,-1.20 601.60,0.00"/>
    </edge>
    <edge id=":n_west_0_0" function="internal">
        <lane id=":n_west_0_0_0" index="0" speed="3.65" length="4.67" shape="0.00,601.60 -1.20,600.80 -1.60,600.00 -1.20,599.20 0.00,598.40"/>
    </edge>
    <edge id=":n_west_1_0" function="internal">
        <lane id=":n_west_1_0_0" index="0" speed="3.65" length="4.67" shape="0.00,401.60 -1.20,400.80 -1.60,400.00 -1.20,399.20 0.00,398.40"/>
    </edge>
    <edge id=":n_west_2_0" function="internal">
        <lane id=":n_west_2_0_0" index="0" speed="3.65" length="4.67" shape="0.00,201.60 -1.20,200.80 -1.60,200.00 -1.20,199.20 0.00,198.40"/>
    </edge>
    <edge id=":tl_00_0" function="internal">
        <lane id=":tl_00_0_0" index="0" speed="6.51" length="9.03" shape="195.20,610.40 194.85,607.95 193.80,606.20 192.05,605.15 189.60,604.80"/>
    </edge>
    <edge id=":tl_00_1" function="internal">
        <lane id=":tl_00_1_0" index="0" speed="13.89" length="20.80" shape="195.20,610.40 195.20,589.60"/>
        <lane id=":tl_00_1_1" index="1" speed="13.89" length="20.80" shape="198.40,610.40 198.40,589.60"/>
    </edge>
    <edge id=":tl_00_3" function="internal">
        <lane id=":tl_00_3_0" index="0" speed="9.26" length="5.01" shape="198.40,610.40 199.11,605.44"/>
    </edge>
    <edge id=":tl_00_4" function="internal">
        <lane id=":tl_00_4_0" index="0" speed="3.65" length="1.44" shape="198.40,610.40 199.20,609.20"/>
    </edge>
    <edge id=":tl_00_20" function="internal">
        <lane id=":tl_00_20_0" index="0" speed="9.26" length="14.34" shape="199.11,605.44 199.15,605.15 201.40,601.40 205.15,599.15 210.40,598.40"/>
    </edge>
    <edge id=":tl_00_21" function="internal">
        <lane id=":tl_00_21_0" index="0" speed="3.65" length="3.23" shape="199.20,609.20 200.00,608.80 200.80,609.20 201.60,610.40"/>
    </edge>
    <edge id=":tl_00_5" function="internal">
        <lane id=":tl_00_5_0" index="0" speed="6.51" length="9.03" shape="210.40,604.80 207.95,605.15 206.20,606.20 205.15,607.95 204.80,610.40"/>
    </edge>
    <edge id=":tl_00_6" function="internal">
        <lane id=":tl_00_6_0" index="0" speed="13.89" length="20.80" shape="210.40,604.80 189.60,604.80"/>
        <lane id=":tl_00_6_1" index="1" speed="13.89" length="20.80" shape="210.40,601.60 189.60,601.60"/>
    </edge>
    <edge id=":tl_00_8" function="internal">
        <lane id=":tl_00_8_0" index="0" speed="9.26" length="5.01" shape="210.40,601.60 205.44,600.89"/>
    </edge>
    <edge id=":tl_00_9" function="internal">
        <lane id=":tl_00_9_0" index="0" speed="3.65" length="1.44" shape="210.40,601.60 209.20,600.80"/>
    </edge>
    <edge id=":tl_00_22" function="internal">
        <lane id=":tl_00_22_0" index="0" speed="9.26" length="14.34" shape="205.44,600.89 205.15,600.85 201.40,598.60 199.15,594.85 198.40,589.60"/>
    </edge>
    <edge id=":tl_00_23" function="internal">
        <lane id=":tl_00_23_0" index="0" speed="3.65" length="3.23" shape="209.20,600.80 208.80,600.00 209.20,599.20 210.40,598.40"/>
    </edge>
    <edge id=":tl_00_10" function="internal">
        <lane id=":tl_00_10_0" index="0" speed="6.51" length="9.03" shape="204.80,589.60 205.15,592.05 206.20,593.80 207.95,594.85 210.40,595.20"/>
    </edge>
    <edge id=":tl_00_11" function="internal">
        <lane id=":tl_00_11_0" index="0" speed="13.89" length="20.80" shape="204.80,589.60 204.80,610.40"/>
        <lane id=":tl_00_11_1" index="1" speed="13.89" length="20.80" shape="201.60,589.60 201.60,610.40"/>
    </edge>
    <edge id=":tl_00_13" function="internal">
        <lane id=":tl_00_13_0" index="0" speed="9.26" length="5.01" shape="201.60,589.60 200.89,594.56"/>
    </edge>
    <edge id=":tl_00_14" function="internal">
        <lane id=":tl_00_14_0" index="0" speed="3.65" length="1.44" shape="201.60,589.60 200.80,590.80"/>
    </edge>
    <edge id=":tl_00_24" function="internal">
        <lane id=":tl_00_24_0" index="0" speed="9.26" length="14.34" shape="200.89,594.56 200.85,594.85 198.60,598.60 194.85,600.85 189.60,601.60"/>
    </edge>
    <edge id=":tl_00_25" function="internal">
        <lane id=":tl_00_25_0" index="0" speed="3.65" length="3.23" shape="200.80,590.80 200.00,591.20 199.20,590.80 198.40,589.60"/>
    </edge>
    <edge id=":tl_00_15" function="internal">
        <lane id=":tl_00_15_0" index="0" speed="6.51" length="9.03" shape="189.60,595.20 192.05,594.85 193.80,593.80 194.85,592.05 195.20,589.60"/>
    </edge>
    <edge id=":tl_00_16" function="internal">
        <lane id=":tl_00_16_0" index="0" speed="13.89" length="20.80" shape="189.60,595.20 210.40,595.20"/>
        <lane id=":tl_00_16_1" index="1" speed="13.89" length="20.80" shape="189.60,598.40 210.40,598.40"/>
    </edge>
    <edge id=":tl_00_18" function="internal">
        <lane id=":tl_00_18_0" index="0" speed="9.26" length="5.01" shape="189.60,598.40 194.56,599.11"/>
    </edge>
    <edge id=":tl_00_19" function="internal">
        <lane id=":tl_00_19_0" index="0" speed="3.65" length="1.44" shape="189.60,598.40 190.80,599.20"/>
    </edge>
    <edge id=":tl_00_26" function="internal">
        <lane id=":tl_00_26_0" index="0" speed="9.26" length="14.34" shape="194.56,599.11 194.85,599.15 198.60,601.40 200.85,605.15 201.60,610.40"/>
    </edge>
    <edge id=":tl_00_27" function="internal">
        <lane id=":tl_00_27_0" index="0" speed="3.65" length="3.23" shape="190.80,599.20 191.20,600.00 190.80,600.80 189.60,601.60"/>
    </edge>
    <edge id=":tl_01_0" function="internal">
        <lane id=":tl_01_0_0" index="0" speed="6.51" length="9.03" shape="395.20,610.40 394.85,607.95 393.80,606.20 392.05,605.15 389.60,604.80"/>
    </edge>
    <edge id=":tl_01_1" function="internal">
        <lane id=":tl_01_1_0" index="0" speed="13.89" length="20.80" shape="395.20,610.40 395.20,589.60"/>
        <lane id=":tl_01_1_1" index="1" speed="13.89" length="20.80" shape="398.40,610.40 398.40,589.60"/>
    </edge>
    <edge id=":tl_01_3" function="internal">
        <lane id=":tl_01_3_0" index="0" speed="9.26" length="5.01" shape="398.40,610.40 399.11,605.44"/>
    </edge>
    <edge id=":tl_01_4" function="internal">
        <lane id=":tl_01_4_0" index="0" speed="3.65" length="1.44" shape="398.40,610.40 399.20,609.20"/>
    </edge>
    <edge id=":tl_01_20" function="internal">
        <lane id=":tl_01_20_0" index="0" speed="9.26" length="14.34" shape="399.11,605.44 399.15,605.15 401.40,601.40 405.15,599.15 410.40,598.40"/>
    </edge>
    <edge id=":tl_01_21" function="internal">
        <lane id=":tl_01_21_0" index="0" speed="3.65" length="3.23" shape="399.20,609.20 400.00,608.80 400.80,609.20 401.60,610.40"/>
    </edge>
    <edge id=":tl_01_5" function="internal">
        <lane id=":tl_01_5_0" index="0" speed="6.51" length="9.03" shape="410.40,604.80 407.95,605.15 406.20,606.20 405.15,607.95 404.80,610.40"/>
    </edge>
    <edge id=":tl_01_6" function="internal">
        <lane id=":tl_01_6_0" index="0" speed="13.89" length="20.80" shape="410.40,604.80 389.60,604.80"/>
        <lane id=":tl_01_6_1" index="1" speed="13.89" length="20.80" shape="410.40,601.60 389.60,601.60"/>
    </edge>
    <edge id=":tl_01_8" function="internal">
        <lane id=":tl_01_8_0" index="0" speed="9.26" length="5.01" shape="410.40,601.60 405.44,600.89"/>
    </edge>
    <edge id=":tl_01_9" function="internal">
        <lane id=":tl_01_9_0" index="0" speed="3.65" length="1.44" shape="410.40,601.60 409.20,600.80"/>
    </edge>
    <edge id=":tl_01_22" function="internal">
        <lane id=":tl_01_22_0" index="0" speed="9.26" length="14.34" shape="405.44,600.89 405.15,600.85 401.40,598.60 399.15,594.85 398.40,589.60"/>
    </edge>
    <edge id=":tl_01_23" function="internal">
        <lane id=":tl_01_23_0" index="0" speed="3.65" length="3.23" shape="409.20,600.80 408.80,600.00 409.20,599.20 410.40,598.40"/>
    </edge>
    <edge id=":tl_01_10" function="internal">
        <lane id=":tl_01_10_0" index="0" speed="6.51" length="9.03" shape="404.80,589.60 405.15,592.05 406.20,593.80 407.95,594.85 410.40,595.20"/>
    </edge>
    <edge id=":tl_01_11" function="internal">
        <lane id=":tl_01_11_0" index="0" speed="13.89" length="20.80" shape="404.80,589.60 404.80,610.40"/>
        <lane id=":tl_01_11_1" index="1" speed="13.89" length="20.80" shape="401.60,589.60 401.60,610.40"/>
    </edge>
    <edge id=":tl_01_13" function="internal">
        <lane id=":tl_01_13_0" index="0" speed="9.26" length="5.01" shape="401.60,589.60 400.89,594.56"/>
    </edge>
    <edge id=":tl_01_14" function="internal">
        <lane id=":tl_01_14_0" index="0" speed="3.65" length="1.44" shape="401.60,589.60 400.80,590.80"/>
    </edge>
    <edge id=":tl_01_24" function="internal">
        <lane id=":tl_01_24_0" index="0" speed="9.26" length="14.34" shape="400.89,594.56 400.85,594.85 398.60,598.60 394.85,600.85 389.60,601.60"/>
    </edge>
    <edge id=":tl_01_25" function="internal">
        <lane id=":tl_01_25_0" index="0" speed="3.65" length="3.23" shape="400.80,590.80 400.00,591.20 399.20,590.80 398.40,589.60"/>
    </edge>
    <edge id=":tl_01_15" function="internal">
        <lane id=":tl_01_15_0" index="0" speed="6.51" length="9.03" shape="389.60,595.20 392.05,594.85 393.80,593.80 394.85,592.05 395.20,589.60"/>
    </edge>
    <edge id=":tl_01_16" function="internal">
        <lane id=":tl_01_16_0" index="0" speed="13.89" length="20.80" shape="389.60,595.20 410.40,595.20"/>
        <lane id=":tl_01_16_1" index="1" speed="13.89" length="20.80" shape="389.60,598.40 410.40,598.40"/>
    </edge>
    <edge id=":tl_01_18" function="internal">
        <lane id=":tl_01_18_0" index="0" speed="9.26" length="5.01" shape="389.60,598.40 394.56,599.11"/>
    </edge>
    <edge id=":tl_01_19" function="internal">
        <lane id=":tl_01_19_0" index="0" speed="3.65" length="1.44" shape="389.60,598.40 390.80,599.20"/>
    </edge>
    <edge id=":tl_01_26" function="internal">
        <lane id=":tl_01_26_0" index="0" speed="9.26" length="14.34" shape="394.56,599.11 394.85,599.15 398.60,601.40 400.85,605.15 401.60,610.40"/>
    </edge>
    <edge id=":tl_01_27" function="internal">
        <lane id=":tl_01_27_0" index="0" speed="3.65" length="3.23" shape="390.80,599.20 391.20,600.00 390.80,600.80 389.60,601.60"/>
    </edge>
    <edge id=":tl_02_0" function="internal">
        <lane id=":tl_02_0_0" index="0" speed="6.51" length="9.03" shape="595.20,610.40 594.85,607.95 593.80,606.20 592.05,605.15 589.60,604.80"/>
    </edge>
    <edge id=":tl_02_1" function="internal">
        <lane id=":tl_02_1_0" index="0" speed="13.89" length="20.80" shape="595.20,610.40 595.20,589.60"/>
        <lane id=":tl_02_1_1" index="1" speed="13.89" length="20.80" shape="598.40,610.40 598.40,589.60"/>
    </edge>
    <edge id=":tl_02_3" function="internal">
        <lane id=":tl_02_3_0" index="0" speed="9.26" length="5.01" shape="598.40,610.40 599.11,605.44"/>
    </edge>
    <edge id=":tl_02_4" function="internal">
        <lane id=":tl_02_4_0" index="0" speed="3.65" length="1.44" shape="598.40,610.40 599.20,609.20"/>
    </edge>
    <edge id=":tl_02_20" function="internal">
        <lane id=":tl_02_20_0" index="0" speed="9.26" length="14.34" shape="599.11,605.44 599.15,605.15 601.40,601.40 605.15,599.15 610.40,598.40"/>
    </edge>
    <edge id=":tl_02_21" function="internal">
        <lane id=":tl_02_21_0" index="0" speed="3.65" length="3.23" shape="599.20,609.20 600.00,608.80 600.80,609.20 601.60,610.40"/>
    </edge>
    <edge id=":tl_02_5" function="internal">
        <lane id=":tl_02_5_0" index="0" speed="6.51" length="9.03" shape="610.40,604.80 607.95,605.15 606.20,606.20 605.15,607.95 604.80,610.40"/>
    </edge>
    <edge id=":tl_02_6" function="internal">
        <lane id=":tl_02_6_0" index="0" speed="13.89" length="20.80" shape="610.40,604.80 589.60,604.80"/>
        <lane id=":tl_02_6_1" index="1" speed="13.89" length="20.80" shape="610.40,601.60 589.60,601.60"/>
    </edge>
    <edge id=":tl_02_8" function="internal">
        <lane id=":tl_02_8_0" index="0" speed="9.26" length="5.01" shape="610.40,601.60 605.44,600.89"/>
    </edge>
    <edge id=":tl_02_9" function="internal">
        <lane id=":tl_02_9_0" index="0" speed="3.65" length="1.44" shape="610.40,601.60 609.20,600.80"/>
    </edge>
    <edge id=":tl_02_22" function="internal">
        <lane id=":tl_02_22_0" index="0" speed="9.26" length="14.34" shape="605.44,600.89 605.15,600.85 601.40,598.60 599.15,594.85 598.40,589.60"/>
    </edge>
    <edge id=":tl_02_23" function="internal">
        <lane id=":tl_02_23_0" index="0" speed="3.65" length="3.23" shape="609.20,600.80 608.80,600.00 609.20,599.20 610.40,598.40"/>
    </edge>
    <edge id=":tl_02_10" function="internal">
        <lane id=":tl_02_10_0" index="0" speed="6.51" length="9.03" shape="604.80,589.60 605.15,592.05 606.20,593.80 607.95,594.85 610.40,595.20"/>
    </edge>
    <edge id=":tl_02_11" function="internal">
        <lane id=":tl_02_11_0" index="0" speed="13.89" length="20.80" shape="604.80,589.60 604.80,610.40"/>
        <lane id=":tl_02_11_1" index="1" speed="13.89" length="20.80" shape="601.60,589.60 601.60,610.40"/>
    </edge>
    <edge id=":tl_02_13" function="internal">
        <lane id=":tl_02_13_0" index="0" speed="9.26" length="5.01" shape="601.60,589.60 600.89,594.56"/>
    </edge>
    <edge id=":tl_02_14" function="internal">
        <lane id=":tl_02_14_0" index="0" speed="3.65" length="1.44" shape="601.60,589.60 600.80,590.80"/>
    </edge>
    <edge id=":tl_02_24" function="internal">
        <lane id=":tl_02_24_0" index="0" speed="9.26" length="14.34" shape="600.89,594.56 600.85,594.85 598.60,598.60 594.85,600.85 589.60,601.60"/>
    </edge>
    <edge id=":tl_02_25" function="internal">
        <lane id=":tl_02_25_0" index="0" speed="3.65" length="3.23" shape="600.80,590.80 600.00,591.20 599.20,590.80 598.40,589.60"/>
    </edge>
    <edge id=":tl_02_15" function="internal">
        <lane id=":tl_02_15_0" index="0" speed="6.51" length="9.03" shape="589.60,595.20 592.05,594.85 593.80,593.80 594.85,592.05 595.20,589.60"/>
    </edge>
    <edge id=":tl_02_16" function="internal">
        <lane id=":tl_02_16_0" index="0" speed="13.89" length="20.80" shape="589.60,595.20 610.40,595.20"/>
        <lane id=":tl_02_16_1" index="1" speed="13.89" length="20.80" shape="589.60,598.40 610.40,598.40"/>
    </edge>
    <edge id=":tl_02_18" function="internal">
        <lane id=":tl_02_18_0" index="0" speed="9.26" length="5.01" shape="589.60,598.40 594.56,599.11"/>
    </edge>
    <edge id=":tl_02_19" function="internal">
        <lane id=":tl_02_19_0" index="0" speed="3.65" length="1.44" shape="589.60,598.40 590.80,599.20"/>
    </edge>
    <edge id=":tl_02_26" function="internal">
        <lane id=":tl_02_26_0" index="0" speed="9.26" length="14.34" shape="594.56,599.11 594.85,599.15 598.60,601.40 600.85,605.15 601.60,610.40"/>
    </edge>
    <edge id=":tl_02_27" function="internal">
        <lane id=":tl_02_27_0" index="0" speed="3.65" length="3.23" shape="590.80,599.20 591.20,600.00 590.80,600.80 589.60,601.60"/>
    </edge>
    <edge id=":tl_10_0" function="internal">
        <lane id=":tl_10_0_0" index="0" speed="6.51" length="9.03" shape="195.20,410.40 194.85,407.95 193.80,406.20 192.05,405.15 189.60,404.80"/>
    </edge>
    <edge id=":tl_10_1" function="internal">
        <lane id=":tl_10_1_0" index="0" speed="13.89" length="20.80" shape="195.20,410.40 195.20,389.60"/>
        <lane id=":tl_10_1_1" index="1" speed="13.89" length="20.80" shape="198.40,410.40 198.40,389.60"/>
    </edge>
    <edge id=":tl_10_3" function="internal">
        <lane id=":tl_10_3_0" index="0" speed="9.26" length="5.01" shape="198.40,410.40 199.11,405.44"/>
    </edge>
    <edge id=":tl_10_4" function="internal">
        <lane id=":tl_10_4_0" index="0" speed="3.65" length="1.44" shape="198.40,410.40 199.20,409.20"/>
    </edge>
    <edge id=":tl_10_20" function="internal">
        <lane id=":tl_10_20_0" index="0" speed="9.26" length="14.34" shape="199.11,405.44 199.15,405.15 201.40,401.40 205.15,399.15 210.40,398.40"/>
    </edge>
    <edge id=":tl_10_21" function="internal">
        <lane id=":tl_10_21_0" index="0" speed="3.65" length="3.23" shape="199.20,409.20 200.00,408.80 200.80,409.20 201.60,410.40"/>
    </edge>
    <edge id=":tl_10_5" function="internal">
        <lane id=":tl_10_5_0" index="0" speed="6.51" length="9.03" shape="210.40,404.80 207.95,405.15 206.20,406.20 205.15,407.95 204.80,410.40"/>
    </edge>
    <edge id=":tl_10_6" function="internal">
        <lane id=":tl_10_6_0" index="0" speed="13.89" length="20.80" shape="210.40,404.80 189.60,404.80"/>
        <lane id=":tl_10_6_1" index="1" speed="13.89" length="20.80" shape="210.40,401.60 189.60,401.60"/>
    </edge>
    <edge id=":tl_10_8" function="internal">
        <lane id=":tl_10_8_0" index="0" speed="9.26" length="5.01" shape="210.40,401.60 205.44,400.89"/>
    </edge>
    <edge id=":tl_10_9" function="internal">
        <lane id=":tl_10_9_0" index="0" speed="3.65" length="1.44" shape="210.40,401.60 209.20,400.80"/>
    </edge>
    <edge id=":tl_10_22" function="internal">
        <lane id=":tl_10_22_0" index="0" speed="9.26" length="14.34" shape="205.44,400.89 205.15,400.85 201.40,398.60 199.15,394.85 198.40,389.60"/>
    </edge>
    <edge id=":tl_10_23" function="internal">
        <lane id=":tl_10_23_0" index="0" speed="3.65" length="3.23" shape="209.20,400.80 208.80,400.00 209.20,399.20 210.40,398.40"/>
    </edge>
    <edge id=":tl_10_10" function="internal">
        <lane id=":tl_10_10_0" index="0" speed="6.51" length="9.03" shape="204.80,389.60 205.15,392.05 206.20,393.80 207.95,394.85 210.40,395.20"/>
    </edge>
    <edge id=":tl_10_11" function="internal">
        <lane id=":tl_10_11_0" index="0" speed="13.89" length="20.80" shape="204.80,389.60 204.80,410.40"/>
        <lane id=":tl_10_11_1" index="1" speed="13.89" length="20.80" shape="201.60,389.60 201.60,410.40"/>
    </edge>
    <edge id=":tl_10_13" function="internal">
        <lane id=":tl_10_13_0" index="0" speed="9.26" length="5.01" shape="201.60,389.60 200.89,394.56"/>
    </edge>
    <edge id=":tl_10_14" function="internal">
        <lane id=":tl_10_14_0" index="0" speed="3.65" length="1.44" shape="201.60,389.60 200.80,390.80"/>
    </edge>
    <edge id=":tl_10_24" function="internal">
        <lane id=":tl_10_24_0" index="0" speed="9.26" length="14.34" shape="200.89,394.56 200.85,394.85 198.60,398.60 194.85,400.85 189.60,401.60"/>
    </edge>
    <edge id=":tl_10_25" function="internal">
        <lane id=":tl_10_25_0" index="0" speed="3.65" length="3.23" shape="200.80,390.80 200.00,391.20 199.20,390.80 198.40,389.60"/>
    </edge>
    <edge id=":tl_10_15" function="internal">
        <lane id=":tl_10_15_0" index="0" speed="6.51" length="9.03" shape="189.60,395.20 192.05,394.85 193.80,393.80 194.85,392.05 195.20,389.60"/>
    </edge>
    <edge id=":tl_10_16" function="internal">
        <lane id=":tl_10_16_0" index="0" speed="13.89" length="20.80" shape="189.60,395.20 210.40,395.20"/>
        <lane id=":tl_10_16_1" index="1" speed="13.89" length="20.80" shape="189.60,398.40 210.40,398.40"/>
    </edge>
    <edge id=":tl_10_18" function="internal">
        <lane id=":tl_10_18_0" index="0" speed="9.26" length="5.01" shape="189.60,398.40 194.56,399.11"/>
    </edge>
    <edge id=":tl_10_19" function="internal">
        <lane id=":tl_10_19_0" index="0" speed="3.65" length="1.44" shape="189.60,398.40 190.80,399.20"/>
    </edge>
    <edge id=":tl_10_26" function="internal">
        <lane id=":tl_10_26_0" index="0" speed="9.26" length="14.34" shape="194.56,399.11 194.85,399.15 198.60,401.40 200.85,405.15 201.60,410.40"/>
    </edge>
    <edge id=":tl_10_27" function="internal">
        <lane id=":tl_10_27_0" index="0" speed="3.65" length="3.23" shape="190.80,399.20 191.20,400.00 190.80,400.80 189.60,401.60"/>
    </edge>
    <edge id=":tl_11_0" function="internal">
        <lane id=":tl_11_0_0" index="0" speed="6.51" length="9.03" shape="395.20,410.40 394.85,407.95 393.80,406.20 392.05,405.15 389.60,404.80"/>
    </edge>
    <edge id=":tl_11_1" function="internal">
        <lane id=":tl_11_1_0" index="0" speed="13.89" length="20.80" shape="395.20,410.40 395.20,389.60"/>
        <lane id=":tl_11_1_1" index="1" speed="13.89" length="20.80" shape="398.40,410.40 398.40,389.60"/>
    </edge>
    <edge id=":tl_11_3" function="internal">
        <lane id=":tl_11_3_0" index="0" speed="9.26" length="5.01" shape="398.40,410.40 399.11,405.44"/>
    </edge>
    <edge id=":tl_11_4" function="internal">
        <lane id=":tl_11_4_0" index="0" speed="3.65" length="1.44" shape="398.40,410.40 399.20,409.20"/>
    </edge>
    <edge id=":tl_11_20" function="internal">
        <lane id=":tl_11_20_0" index="0" speed="9.26" length="14.34" shape="399.11,405.44 399.15,405.15 401.40,401.40 405.15,399.15 410.40,398.40"/>
    </edge>
    <edge id=":tl_11_21" function="internal">
        <lane id=":tl_11_21_0" index="0" speed="3.65" length="3.23" shape="399.20,409.20 400.00,408.80 400.80,409.20 401.60,410.40"/>
    </edge>
    <edge id=":tl_11_5" function="internal">
        <lane id=":tl_11_5_0" index="0" speed="6.51" length="9.03" shape="410.40,404.80 407.95,405.15 406.20,406.20 405.15,407.95 404.80,410.40"/>
    </edge>
    <edge id=":tl_11_6" function="internal">
        <lane id=":tl_11_6_0" index="0" speed="13.89" length="20.80" shape="410.40,404.80 389.60,404.80"/>
        <lane id=":tl_11_6_1" index="1" speed="13.89" length="20.80" shape="410.40,401.60 389.60,401.60"/>
    </edge>
    <edge id=":tl_11_8" function="internal">
        <lane id=":tl_11_8_0" index="0" speed="9.26" length="5.01" shape="410.40,401.60 405.44,400.89"/>
    </edge>
    <edge id=":tl_11_9" function="internal">
        <lane id=":tl_11_9_0" index="0" speed="3.65" length="1.44" shape="410.40,401.60 409.20,400.80"/>
    </edge>
    <edge id=":tl_11_22" function="internal">
        <lane id=":tl_11_22_0" index="0" speed="9.26" length="14.34" shape="405.44,400.89 405.15,400.85 401.40,398.60 399.15,394.85 398.40,389.60"/>
    </edge>
    <edge id=":tl_11_23" function="internal">
        <lane id=":tl_11_23_0" index="0" speed="3.65" length="3.23" shape="409.20,400.80 408.80,400.00 409.20,399.20 410.40,398.40"/>
    </edge>
    <edge id=":tl_11_10" function="internal">
        <lane id=":tl_11_10_0" index="0" speed="6.51" length="9.03" shape="404.80,389.60 405.15,392.05 406.20,393.80 407.95,394.85 410.40,395.20"/>
    </edge>
    <edge id=":tl_11_11" function="internal">
        <lane id=":tl_11_11_0" index="0" speed="13.89" length="20.80" shape="404.80,389.60 404.80,410.40"/>
        <lane id=":tl_11_11_1" index="1" speed="13.89" length="20.80" shape="401.60,389.60 401.60,410.40"/>
    </edge>
    <edge id=":tl_11_13" function="internal">
        <lane id=":tl_11_13_0" index="0" speed="9.26" length="5.01" shape="401.60,389.60 400.89,394.56"/>
    </edge>
    <edge id=":tl_11_14" function="internal">
        <lane id=":tl_11_14_0" index="0" speed="3.65" length="1.44" shape="401.60,389.60 400.80,390.80"/>
    </edge>
    <edge id=":tl_11_24" function="internal">
        <lane id=":tl_11_24_0" index="0" speed="9.26" length="14.34" shape="400.89,394.56 400.85,394.85 398.60,398.60 394.85,400.85 389.60,401.60"/>
    </edge>
    <edge id=":tl_11_25" function="internal">
        <lane id=":tl_11_25_0" index="0" speed="3.65" length="3.23" shape="400.80,390.80 400.00,391.20 399.20,390.80 398.40,389.60"/>
    </edge>
    <edge id=":tl_11_15" function="internal">
        <lane id=":tl_11_15_0" index="0" speed="6.51" length="9.03" shape="389.60,395.20 392.05,394.85 393.80,393.80 394.85,392.05 395.20,389.60"/>
    </edge>
    <edge id=":tl_11_16" function="internal">
        <lane id=":tl_11_16_0" index="0" speed="13.89" length="20.80" shape="389.60,395.20 410.40,395.20"/>
        <lane id=":tl_11_16_1" index="1" speed="13.89" length="20.80" shape="389.60,398.40 410.40,398.40"/>
    </edge>
    <edge id=":tl_11_18" function="internal">
        <lane id=":tl_11_18_0" index="0" speed="9.26" length="5.01" shape="389.60,398.40 394.56,399.11"/>
    </edge>
    <edge id=":tl_11_19" function="internal">
        <lane id=":tl_11_19_0" index="0" speed="3.65" length="1.44" shape="389.60,398.40 390.80,399.20"/>
    </edge>
    <edge id=":tl_11_26" function="internal">
        <lane id=":tl_11_26_0" index="0" speed="9.26" length="14.34" shape="394.56,399.11 394.85,399.15 398.60,401.40 400.85,405.15 401.60,410.40"/>
    </edge>
    <edge id=":tl_11_27" function="internal">
        <lane id=":tl_11_27_0" index="0" speed="3.65" length="3.23" shape="390.80,399.20 391.20,400.00 390.80,400.80 389.60,401.60"/>
    </edge>
    <edge id=":tl_12_0" function="internal">
        <lane id=":tl_12_0_0" index="0" speed="6.51" length="9.03" shape="595.20,410.40 594.85,407.95 593.80,406.20 592.05,405.15 589.60,404.80"/>
    </edge>
    <edge id=":tl_12_1" function="internal">
        <lane id=":tl_12_1_0" index="0" speed="13.89" length="20.80" shape="595.20,410.40 595.20,389.60"/>
        <lane id=":tl_12_1_1" index="1" speed="13.89" length="20.80" shape="598.40,410.40 598.40,389.60"/>
    </edge>
    <edge id=":tl_12_3" function="internal">
        <lane id=":tl_12_3_0" index="0" speed="9.26" length="5.01" shape="598.40,410.40 599.11,405.44"/>
    </edge>
    <edge id=":tl_12_4" function="internal">
        <lane id=":tl_12_4_0" index="0" speed="3.65" length="1.44" shape="598.40,410.40 599.20,409.20"/>
    </edge>
    <edge id=":tl_12_20" function="internal">
        <lane id=":tl_12_20_0" index="0" speed="9.26" length="14.34" shape="599.11,405.44 599.15,405.15 601.40,401.40 605.15,399.15 610.40,398.40"/>
    </edge>
    <edge id=":tl_12_21" function="internal">
        <lane id=":tl_12_21_0" index="0" speed="3.65" length="3.23" shape="599.20,409.20 600.00,408.80 600.80,409.20 601.60,410.40"/>
    </edge>
    <edge id=":tl_12_5" function="internal">
        <lane id=":tl_12_5_0" index="0" speed="6.51" length="9.03" shape="610.40,404.80 607.95,405.15 606.20,406.20 605.15,407.95 604.80,410.40"/>
    </edge>
    <edge id=":tl_12_6" function="internal">
        <lane id=":tl_12_6_0" index="0" speed="13.89" length="20.80" shape="610.40,404.80 589.60,404.80"/>
        <lane id=":tl_12_6_1" index="1" speed="13.89" length="20.80" shape="610.40,401.60 589.60,401.60"/>
    </edge>
    <edge id=":tl_12_8" function="internal">
        <lane id=":tl_12_8_0" index="0" speed="9.26" length="5.01" shape="610.40,401.60 605.44,400.89"/>
    </edge>
    <edge id=":tl_12_9" function="internal">
        <lane id=":tl_12_9_0" index="0" speed="3.65" length="1.44" shape="610.40,401.60 609.20,400.80"/>
    </edge>
    <edge id=":tl_12_22" function="internal">
        <lane id=":tl_12_22_0" index="0" speed="9.26" length="14.34" shape="605.44,400.89 605.15,400.85 601.40,398.60 599.15,394.85 598.40,389.60"/>
    </edge>
    <edge id=":tl_12_23" function="internal">
        <lane id=":tl_12_23_0" index="0" speed="3.65" length="3.23" shape="609.20,400.80 608.80,400.00 609.20,399.20 610.40,398.40"/>
    </edge>
    <edge id=":tl_12_10" function="internal">
        <lane id=":tl_12_10_0" index="0" speed="6.51" length="9.03" shape="604.80,389.60 605.15,392.05 606.20,393.80 607.95,394.85 610.40,395.20"/>
    </edge>