<?xml version="1.0" ?>
<routes xmlns:xsi="http://www.w3.org/2001/XMLSchema-instance" xsi:noNamespaceSchemaLocation="http://sumo.dlr.de/xsd/routes_file.xsd">
    <vType id="car" vClass="passenger" color="1,1,0" speedDev="0.1"/>
    <vType id="bus" vClass="bus" color="0,1,0" length="12" width="2.5" speedDev="0.05"/>
    <route id="route_h_west_east_0" edges="h_00_in h_00_01 h_01_02 h_02_out"/>
    <route id="route_h_west_east_1" edges="h_10_in h_10_11 h_11_12 h_12_out"/>
    <route id="route_h_west_east_2" edges="h_20_in h_20_21 h_21_22 h_22_out"/>
    <route id="route_h_east_west_0" edges="h_02_in h_02_01 h_01_00 h_00_out"/>
    <route id="route_h_east_west_1" edges="h_12_in h_12_11 h_11_10 h_10_out"/>
    <route id="route_h_east_west_2" edges="h_22_in h_22_21 h_21_20 h_20_out"/>
    <route id="route_v_north_south_0" edges="v_00_in v_00_10 v_10_20 v_20_out"/>
    <route id="route_v_north_south_1" edges="v_01_in v_01_11 v_11_21 v_21_out"/>
    <route id="route_v_north_south_2" edges="v_02_in v_02_12 v_12_22 v_22_out"/>
    <route id="route_v_south_north_0" edges="v_20_in v_20_10 v_10_00 v_00_out"/>
    <route id="route_v_south_north_1" edges="v_21_in v_21_11 v_11_01 v_01_out"/>
    <route id="route_v_south_north_2" edges="v_22_in v_22_12 v_12_02 v_02_out"/>
    <route id="route_d_nw_se" edges="v_00_in v_00_10 h_10_11 v_11_21 h_21_22 v_22_out"/>
    <route id="route_d_ne_sw" edges="v_02_in v_02_12 h_12_11 v_11_21 h_21_20 v_20_out"/>
    <route id="route_d_sw_ne" edges="v_20_in v_20_10 h_10_11 v_11_01 h_01_02 v_02_out"/>
    <route id="route_d_se_nw" edges="v_22_in v_22_12 h_12_11 v_11_01 h_01_00 v_00_out"/>
    <flow id="cars_route_d_ne_sw" type="car" route="route_d_ne_sw" begin="0" end="1000" probability="0.3"/>
    <flow id="cars_route_d_nw_se" type="car" route="route_d_nw_se" begin="0" end="1000" probability="0.3"/>
    <flow id="cars_route_d_se_nw" type="car" route="route_d_se_nw" begin="0" end="1000" probability="0.3"/>
    <flow id="cars_route_d_sw_ne" type="car" route="route_d_sw_ne" begin="0" end="1000" probability="0.3"/>
    <flow id="cars_route_h_east_west_0" type="car" route="route_h_east_west_0" begin="0" end="1000" probability="0.3"/>
    <flow id="cars_route_h_east_west_1" type="car" route="route_h_east_west_1" begin="0" end="1000" probability="0.3"/>
    <flow id="cars_route_h_east_west_2" type="car" route="route_h_east_west_2" begin="0" end="1000" probability="0.3"/>
    <flow id="cars_route_h_west_east_0" type="car" route="route_h_west_east_0" begin="0" end="1000" probability="0.44999999999999996"/>
    <flow id="cars_route_h_west_east_1" type="car" route="route_h_west_east_1" begin="0" end="1000" probability="0.44999999999999996"/>
    <flow id="cars_route_h_west_east_2" type="car" route="route_h_west_east_2" begin="0" end="1000" probability="0.44999999999999996"/>
    <flow id="cars_route_v_north_south_0" type="car" route="route_v_north_south_0" begin="0" end="1000" probability="0.44999999999999996"/>
    <flow id="cars_route_v_north_south_1" type="car" route="route_v_north_south_1" begin="0" end="1000" probability="0.44999999999999996"/>
    <flow id="cars_route_v_north_south_2" type="car" route="route_v_north_south_2" begin="0" end="1000" probability="0.44999999999999996"/>
    <flow id="cars_route_v_south_north_0" type="car" route="route_v_south_north_0" begin="0" end="1000" probability="0.3"/>
    <flow id="cars_route_v_south_north_1" type="car" route="route_v_south_north_1" begin="0" end="1000" probability="0.3"/>
    <flow id="cars_route_v_south_north_2" type="car" route="route_v_south_north_2" begin="0" end="1000" probability="0.3"/>
    <vehicle id="bus_100" type="bus" route="route_h_east_west_1" depart="10" color="0,1,0"/>
    <vehicle id="bus_175" type="bus" route="route_v_north_south_1" depart="10" color="0,1,0"/>
    <vehicle id="bus_200" type="bus" route="route_v_north_south_2" depart="12" color="0,1,0"/>
    <vehicle id="bus_225" type="bus" route="route_v_south_north_0" depart="12" color="0,1,0"/>
    <vehicle id="bus_0" type="bus" route="route_h_west_east_0" depart="15" color="0,1,0"/>
    <vehicle id="bus_75" type="bus" route="route_h_east_west_0" depart="18" color="0,1,0"/>
    <vehicle id="bus_275" type="bus" route="route_v_south_north_2" depart="20" color="0,1,0"/>
    <vehicle id="bus_25" type="bus" route="route_h_west_east_1" depart="21" color="0,1,0"/>
    <vehicle id="bus_50" type="bus" route="route_h_west_east_2" depart="24" color="0,1,0"/>
    <vehicle id="bus_150" type="bus" route="route_v_north_south_0" depart="25" color="0,1,0"/>
    <vehicle id="bus_125" type="bus" route="route_h_east_west_2" depart="27" color="0,1,0"/>
    <vehicle id="bus_250" type="bus" route="route_v_south_north_1" depart="27" color="0,1,0"/>
    <vehicle id="bus_251" type="bus" route="route_v_south_north_1" depart="51" color="0,1,0"/>
    <vehicle id="bus_151" type="bus" route="route_v_north_south_0" depart="57" color="0,1,0"/>
    <vehicle id="bus_76" type="bus" route="route_h_east_west_0" depart="58" color="0,1,0"/>
    <vehicle id="bus_176" type="bus" route="route_v_north_south_1" depart="60" color="0,1,0"/>
    <vehicle id="bus_51" type="bus" route="route_h_west_east_2" depart="61" color="0,1,0"/>
    <vehicle id="bus_101" type="bus" route="route_h_east_west_1" depart="61" color="0,1,0"/>
    <vehicle id="bus_201" type="bus" route="route_v_north_south_2" depart="62" color="0,1,0"/>
    <vehicle id="bus_126" type="bus" route="route_h_east_west_2" depart="64" color="0,1,0"/>
    <vehicle id="bus_26" type="bus" route="route_h_west_east_1" depart="66" color="0,1,0"/>
    <vehicle id="bus_226" type="bus" route="route_v_south_north_0" depart="66" color="0,1,0"/>
    <vehicle id="bus_1" type="bus" route="route_h_west_east_0" depart="70" color="0,1,0"/>
    <vehicle id="bus_276" type="bus" route="route_v_south_north_2" depart="70" color="0,1,0"/>
    <vehicle id="bus_77" type="bus" route="route_h_east_west_0" depart="91" color="0,1,0"/>
    <vehicle id="bus_227" type="bus" route="route_v_south_north_0" depart="91" color="0,1,0"/>
    <vehicle id="bus_2" type="bus" route="route_h_west_east_0" depart="92" color="0,1,0"/>
    <vehicle id="bus_102" type="bus" route="route_h_east_west_1" depart="100" color="0,1,0"/>
    <vehicle id="bus_152" type="bus" route="route_v_north_south_0" depart="100" color="0,1,0"/>
    <vehicle id="bus_252" type="bus" route="route_v_south_north_1" depart="101" color="0,1,0"/>
    <vehicle id="bus_277" type="bus" route="route_v_south_north_2" depart="101" color="0,1,0"/>
    <vehicle id="bus_27" type="bus" route="route_h_west_east_1" depart="107" color="0,1,0"/>
    <vehicle id="bus_177" type="bus" route="route_v_north_south_1" depart="107" color="0,1,0"/>
    <vehicle id="bus_202" type="bus" route="route_v_north_south_2" depart="107" color="0,1,0"/>
    <vehicle id="bus_52" type="bus" route="route_h_west_east_2" depart="109" color="0,1,0"/>
    <vehicle id="bus_127" type="bus" route="route_h_east_west_2" depart="109" color="0,1,0"/>
    <vehicle id="bus_53" type="bus" route="route_h_west_east_2" depart="130" color="0,1,0"/>
    <vehicle id="bus_278" type="bus" route="route_v_south_north_2" depart="131" color="0,1,0"/>
    <vehicle id="bus_228" type="bus" route="route_v_south_north_0" depart="133" color="0,1,0"/>
    <vehicle id="bus_128" type="bus" route="route_h_east_west_2" depart="134" color="0,1,0"/>
    <vehicle id="bus_103" type="bus" route="route_h_east_west_1" depart="135" color="0,1,0"/>
    <vehicle id="bus_178" type="bus" route="route_v_north_south_1" depart="136" color="0,1,0"/>
    <vehicle id="bus_78" type="bus" route="route_h_east_west_0" depart="143" color="0,1,0"/>
    <vehicle id="bus_28" type="bus" route="route_h_west_east_1" depart="144" color="0,1,0"/>
    <vehicle id="bus_153" type="bus" route="route_v_north_south_0" depart="144" color="0,1,0"/>
    <vehicle id="bus_3" type="bus" route="route_h_west_east_0" depart="145" color="0,1,0"/>
    <vehicle id="bus_203" type="bus" route="route_v_north_south_2" depart="146" color="0,1,0"/>
    <vehicle id="bus_253" type="bus" route="route_v_south_north_1" depart="149" color="0,1,0"/>
    <vehicle id="bus_129" type="bus" route="route_h_east_west_2" depart="170" color="0,1,0"/>
    <vehicle id="bus_229" type="bus" route="route_v_south_north_0" depart="170" color="0,1,0"/>
    <vehicle id="bus_254" type="bus" route="route_v_south_north_1" depart="170" color="0,1,0"/>
    <vehicle id="bus_79" type="bus" route="route_h_east_west_0" depart="176" color="0,1,0"/>
    <vehicle id="bus_204" type="bus" route="route_v_north_south_2" depart="177" color="0,1,0"/>
    <vehicle id="bus_4" type="bus" route="route_h_west_east_0" depart="179" color="0,1,0"/>
    <vehicle id="bus_104" type="bus" route="route_h_east_west_1" depart="179" color="0,1,0"/>
    <vehicle id="bus_154" type="bus" route="route_v_north_south_0" depart="185" color="0,1,0"/>
    <vehicle id="bus_29" type="bus" route="route_h_west_east_1" depart="186" color="0,1,0"/>
    <vehicle id="bus_54" type="bus" route="route_h_west_east_2" depart="187" color="0,1,0"/>
    <vehicle id="bus_179" type="bus" route="route_v_north_south_1" depart="187" color="0,1,0"/>
    <vehicle id="bus_279" type="bus" route="route_v_south_north_2" depart="189" color="0,1,0"/>
    <vehicle id="bus_230" type="bus" route="route_v_south_north_0" depart="210" color="0,1,0"/>
    <vehicle id="bus_30" type="bus" route="route_h_west_east_1" depart="213" color="0,1,0"/>
    <vehicle id="bus_280" type="bus" route="route_v_south_north_2" depart="214" color="0,1,0"/>
    <vehicle id="bus_205" type="bus" route="route_v_north_south_2" depart="216" color="0,1,0"/>
    <vehicle id="bus_155" type="bus" route="route_v_north_south_0" depart="217" color="0,1,0"/>
    <vehicle id="bus_5" type="bus" route="route_h_west_east_0" depart="218" color="0,1,0"/>
    <vehicle id="bus_80" type="bus" route="route_h_east_west_0" depart="218" color="0,1,0"/>
    <vehicle id="bus_180" type="bus" route="route_v_north_south_1" depart="218" color="0,1,0"/>
    <vehicle id="bus_130" type="bus" route="route_h_east_west_2" depart="221" color="0,1,0"/>
    <vehicle id="bus_255" type="bus" route="route_v_south_north_1" depart="223" color="0,1,0"/>
    <vehicle id="bus_55" type="bus" route="route_h_west_east_2" depart="229" color="0,1,0"/>
    <vehicle id="bus_105" type="bus" route="route_h_east_west_1" depart="230" color="0,1,0"/>
    <vehicle id="bus_256" type="bus" route="route_v_south_north_1" depart="250" color="0,1,0"/>
    <vehicle id="bus_131" type="bus" route="route_h_east_west_2" depart="253" color="0,1,0"/>
    <vehicle id="bus_206" type="bus" route="route_v_north_south_2" depart="255" color="0,1,0"/>
    <vehicle id="bus_106" type="bus" route="route_h_east_west_1" depart="258" color="0,1,0"/>
    <vehicle id="bus_181" type="bus" route="route_v_north_south_1" depart="258" color="0,1,0"/>
    <vehicle id="bus_281" type="bus" route="route_v_south_north_2" depart="258" color="0,1,0"/>
    <vehicle id="bus_6" type="bus" route="route_h_west_east_0" depart="259" color="0,1,0"/>
    <vehicle id="bus_231" type="bus" route="route_v_south_north_0" depart="259" color="0,1,0"/>
    <vehicle id="bus_56" type="bus" route="route_h_west_east_2" depart="263" color="0,1,0"/>
    <vehicle id="bus_156" type="bus" route="route_v_north_south_0" depart="265" color="0,1,0"/>
    <vehicle id="bus_81" type="bus" route="route_h_east_west_0" depart="266" color="0,1,0"/>
    <vehicle id="bus_31" type="bus" route="route_h_west_east_1" depart="269" color="0,1,0"/>
    <vehicle id="bus_82" type="bus" route="route_h_east_west_0" depart="290" color="0,1,0"/>
    <vehicle id="bus_132" type="bus" route="route_h_east_west_2" depart="291" color="0,1,0"/>
    <vehicle id="bus_207" type="bus" route="route_v_north_south_2" depart="291" color="0,1,0"/>
    <vehicle id="bus_7" type="bus" route="route_h_west_east_0" depart="292" color="0,1,0"/>
    <vehicle id="bus_157" type="bus" route="route_v_north_south_0" depart="293" color="0,1,0"/>
    <vehicle id="bus_282" type="bus" route="route_v_south_north_2" depart="299" color="0,1,0"/>
    <vehicle id="bus_107" type="bus" route="route_h_east_west_1" depart="301" color="0,1,0"/>
    <vehicle id="bus_182" type="bus" route="route_v_north_south_1" depart="307" color="0,1,0"/>
    <vehicle id="bus_257" type="bus" route="route_v_south_north_1" depart="307" color="0,1,0"/>
    <vehicle id="bus_32" type="bus" route="route_h_west_east_1" depart="309" color="0,1,0"/>
    <vehicle id="bus_57" type="bus" route="route_h_west_east_2" depart="309" color="0,1,0"/>
    <vehicle id="bus_232" type="bus" route="route_v_south_north_0" depart="310" color="0,1,0"/>
    <vehicle id="bus_208" type="bus" route="route_v_north_south_2" depart="330" color="0,1,0"/>
    <vehicle id="bus_183" type="bus" route="route_v_north_south_1" depart="332" color="0,1,0"/>
    <vehicle id="bus_83" type="bus" route="route_h_east_west_0" depart="334" color="0,1,0"/>
    <vehicle id="bus_8" type="bus" route="route_h_west_east_0" depart="335" color="0,1,0"/>
    <vehicle id="bus_108" type="bus" route="route_h_east_west_1" depart="339" color="0,1,0"/>
    <vehicle id="bus_283" type="bus" route="route_v_south_north_2" depart="339" color="0,1,0"/>
    <vehicle id="bus_158" type="bus" route="route_v_north_south_0" depart="340" color="0,1,0"/>
    <vehicle id="bus_58" type="bus" route="route_h_west_east_2" depart="343" color="0,1,0"/>
    <vehicle id="bus_33" type="bus" route="route_h_west_east_1" depart="345" color="0,1,0"/>
    <vehicle id="bus_258" type="bus" route="route_v_south_north_1" depart="346" color="0,1,0"/>
    <vehicle id="bus_233" type="bus" route="route_v_south_north_0" depart="349" color="0,1,0"/>
    <vehicle id="bus_133" type="bus" route="route_h_east_west_2" depart="350" color="0,1,0"/>
    <vehicle id="bus_109" type="bus" route="route_h_east_west_1" depart="373" color="0,1,0"/>
    <vehicle id="bus_209" type="bus" route="route_v_north_south_2" depart="373" color="0,1,0"/>
    <vehicle id="bus_59" type="bus" route="route_h_west_east_2" depart="376" color="0,1,0"/>
    <vehicle id="bus_134" type="bus" route="route_h_east_west_2" depart="377" color="0,1,0"/>
    <vehicle id="bus_159" type="bus" route="route_v_north_south_0" depart="378" color="0,1,0"/>
    <vehicle id="bus_84" type="bus" route="route_h_east_west_0" depart="379" color="0,1,0"/>
    <vehicle id="bus_284" type="bus" route="route_v_south_north_2" depart="380" color="0,1,0"/>
    <vehicle id="bus_9" type="bus" route="route_h_west_east_0" depart="383" color="0,1,0"/>
    <vehicle id="bus_184" type="bus" route="route_v_north_south_1" depart="387" color="0,1,0"/>
    <vehicle id="bus_34" type="bus" route="route_h_west_east_1" depart="390" color="0,1,0"/>
    <vehicle id="bus_234" type="bus" route="route_v_south_north_0" depart="390" color="0,1,0"/>
    <vehicle id="bus_259" type="bus" route="route_v_south_north_1" depart="390" color="0,1,0"/>
    <vehicle id="bus_160" type="bus" route="route_v_north_south_0" depart="410" color="0,1,0"/>
    <vehicle id="bus_210" type="bus" route="route_v_north_south_2" depart="411" color="0,1,0"/>
    <vehicle id="bus_185" type="bus" route="route_v_north_south_1" depart="412" color="0,1,0"/>
    <vehicle id="bus_85" type="bus" route="route_h_east_west_0" depart="415" color="0,1,0"/>
    <vehicle id="bus_135" type="bus" route="route_h_east_west_2" depart="416" color="0,1,0"/>
    <vehicle id="bus_10" type="bus" route="route_h_west_east_0" depart="423" color="0,1,0"/>
    <vehicle id="bus_110" type="bus" route="route_h_east_west_1" depart="424" color="0,1,0"/>
    <vehicle id="bus_235" type="bus" route="route_v_south_north_0" depart="424" color="0,1,0"/>
    <vehicle id="bus_35" type="bus" route="route_h_west_east_1" depart="426" color="0,1,0"/>
    <vehicle id="bus_260" type="bus" route="route_v_south_north_1" depart="426" color="0,1,0"/>
    <vehicle id="bus_60" type="bus" route="route_h_west_east_2" depart="428" color="0,1,0"/>
    <vehicle id="bus_285" type="bus" route="route_v_south_north_2" depart="430" color="0,1,0"/>
    <vehicle id="bus_211" type="bus" route="route_v_north_south_2" depart="450" color="0,1,0"/>
    <vehicle id="bus_186" type="bus" route="route_v_north_south_1" depart="451" color="0,1,0"/>
    <vehicle id="bus_61" type="bus" route="route_h_west_east_2" depart="452" color="0,1,0"/>
    <vehicle id="bus_261" type="bus" route="route_v_south_north_1" depart="452" color="0,1,0"/>
    <vehicle id="bus_36" type="bus" route="route_h_west_east_1" depart="454" color="0,1,0"/>
    <vehicle id="bus_286" type="bus" route="route_v_south_north_2" depart="458" color="0,1,0"/>
    <vehicle id="bus_161" type="bus" route="route_v_north_south_0" depart="461" color="0,1,0"/>
    <vehicle id="bus_11" type="bus" route="route_h_west_east_0" depart="464" color="0,1,0"/>
    <vehicle id="bus_86" type="bus" route="route_h_east_west_0" depart="465" color="0,1,0"/>
    <vehicle id="bus_111" type="bus" route="route_h_east_west_1" depart="465" color="0,1,0"/>
    <vehicle id="bus_236" type="bus" route="route_v_south_north_0" depart="465" color="0,1,0"/>
    <vehicle id="bus_136" type="bus" route="route_h_east_west_2" depart="469" color="0,1,0"/>
    <vehicle id="bus_187" type="bus" route="route_v_north_south_1" depart="492" color="0,1,0"/>
    <vehicle id="bus_287" type="bus" route="route_v_south_north_2" depart="493" color="0,1,0"/>
    <vehicle id="bus_162" type="bus" route="route_v_north_south_0" depart="494" color="0,1,0"/>
    <vehicle id="bus_212" type="bus" route="route_v_north_south_2" depart="495" color="0,1,0"/>
    <vehicle id="bus_37" type="bus" route="route_h_west_east_1" depart="498" color="0,1,0"/>
    <vehicle id="bus_262" type="bus" route="route_v_south_north_1" depart="499" color="0,1,0"/>
    <vehicle id="bus_87" type="bus" route="route_h_east_west_0" depart="500" color="0,1,0"/>
    <vehicle id="bus_112" type="bus" route="route_h_east_west_1" depart="500" color="0,1,0"/>
    <vehicle id="bus_237" type="bus" route="route_v_south_north_0" depart="501" color="0,1,0"/>
    <vehicle id="bus_62" type="bus" route="route_h_west_east_2" depart="503" color="0,1,0"/>
    <vehicle id="bus_137" type="bus" route="route_h_east_west_2" depart="503" color="0,1,0"/>
    <vehicle id="bus_12" type="bus" route="route_h_west_east_0" depart="506" color="0,1,0"/>
    <vehicle id="bus_163" type="bus" route="route_v_north_south_0" depart="531" color="0,1,0"/>
    <vehicle id="bus_138" type="bus" route="route_h_east_west_2" depart="532" color="0,1,0"/>
    <vehicle id="bus_188" type="bus" route="route_v_north_south_1" depart="532" color="0,1,0"/>
    <vehicle id="bus_113" type="bus" route="route_h_east_west_1" depart="533" color="0,1,0"/>
    <vehicle id="bus_288" type="bus" route="route_v_south_north_2" depart="535" color="0,1,0"/>
    <vehicle id="bus_38" type="bus" route="route_h_west_east_1" depart="537" color="0,1,0"/>
    <vehicle id="bus_213" type="bus" route="route_v_north_south_2" depart="537" color="0,1,0"/>
    <vehicle id="bus_238" type="bus" route="route_v_south_north_0" depart="537" color="0,1,0"/>
    <vehicle id="bus_63" type="bus" route="route_h_west_east_2" depart="538" color="0,1,0"/>
    <vehicle id="bus_13" type="bus" route="route_h_west_east_0" depart="542" color="0,1,0"/>
    <vehicle id="bus_88" type="bus" route="route_h_east_west_0" depart="544" color="0,1,0"/>
    <vehicle id="bus_263" type="bus" route="route_v_south_north_1" depart="545" color="0,1,0"/>
    <vehicle id="bus_14" type="bus" route="route_h_west_east_0" depart="570" color="0,1,0"/>
    <vehicle id="bus_39" type="bus" route="route_h_west_east_1" depart="570" color="0,1,0"/>
    <vehicle id="bus_114" type="bus" route="route_h_east_west_1" depart="575" color="0,1,0"/>
    <vehicle id="bus_239" type="bus" route="route_v_south_north_0" depart="575" color="0,1,0"/>
    <vehicle id="bus_289" type="bus" route="route_v_south_north_2" depart="575" color="0,1,0"/>
    <vehicle id="bus_89" type="bus" route="route_h_east_west_0" depart="580" color="0,1,0"/>
    <vehicle id="bus_139" type="bus" route="route_h_east_west_2" depart="581" color="0,1,0"/>
    <vehicle id="bus_64" type="bus" route="route_h_west_east_2" depart="582" color="0,1,0"/>
    <vehicle id="bus_164" type="bus" route="route_v_north_south_0" depart="585" color="0,1,0"/>
    <vehicle id="bus_189" type="bus" route="route_v_north_south_1" depart="589" color="0,1,0"/>
    <vehicle id="bus_264" type="bus" route="route_v_south_north_1" depart="589" color="0,1,0"/>
    <vehicle id="bus_214" type="bus" route="route_v_north_south_2" depart="590" color="0,1,0"/>
    <vehicle id="bus_290" type="bus" route="route_v_south_north_2" depart="610" color="0,1,0"/>
    <vehicle id="bus_165" type="bus" route="route_v_north_south_0" depart="614" color="0,1,0"/>
    <vehicle id="bus_240" type="bus" route="route_v_south_north_0" depart="615" color="0,1,0"/>
    <vehicle id="bus_65" type="bus" route="route_h_west_east_2" depart="619" color="0,1,0"/>
    <vehicle id="bus_90" type="bus" route="route_h_east_west_0" depart="619" color="0,1,0"/>
    <vehicle id="bus_190" type="bus" route="route_v_north_south_1" depart="622" color="0,1,0"/>
    <vehicle id="bus_15" type="bus" route="route_h_west_east_0" depart="623" color="0,1,0"/>
    <vehicle id="bus_40" type="bus" route="route_h_west_east_1" depart="623" color="0,1,0"/>
    <vehicle id="bus_115" type="bus" route="route_h_east_west_1" depart="623" color="0,1,0"/>
    <vehicle id="bus_265" type="bus" route="route_v_south_north_1" depart="623" color="0,1,0"/>
    <vehicle id="bus_140" type="bus" route="route_h_east_west_2" depart="624" color="0,1,0"/>
    <vehicle id="bus_215" type="bus" route="route_v_north_south_2" depart="625" color="0,1,0"/>
    <vehicle id="bus_266" type="bus" route="route_v_south_north_1" depart="652" color="0,1,0"/>
    <vehicle id="bus_216" type="bus" route="route_v_north_south_2" depart="654" color="0,1,0"/>
    <vehicle id="bus_66" type="bus" route="route_h_west_east_2" depart="655" color="0,1,0"/>
    <vehicle id="bus_141" type="bus" route="route_h_east_west_2" depart="656" color="0,1,0"/>
    <vehicle id="bus_41" type="bus" route="route_h_west_east_1" depart="657" color="0,1,0"/>
    <vehicle id="bus_116" type="bus" route="route_h_east_west_1" depart="657" color="0,1,0"/>
    <vehicle id="bus_16" type="bus" route="route_h_west_east_0" depart="661" color="0,1,0"/>
    <vehicle id="bus_166" type="bus" route="route_v_north_south_0" depart="661" color="0,1,0"/>
    <vehicle id="bus_191" type="bus" route="route_v_north_south_1" depart="661" color="0,1,0"/>
    <vehicle id="bus_241" type="bus" route="route_v_south_north_0" depart="664" color="0,1,0"/>
    <vehicle id="bus_91" type="bus" route="route_h_east_west_0" depart="666" color="0,1,0"/>
    <vehicle id="bus_291" type="bus" route="route_v_south_north_2" depart="669" color="0,1,0"/>
    <vehicle id="bus_217" type="bus" route="route_v_north_south_2" depart="690" color="0,1,0"/>
    <vehicle id="bus_67" type="bus" route="route_h_west_east_2" depart="693" color="0,1,0"/>
    <vehicle id="bus_42" type="bus" route="route_h_west_east_1" depart="694" color="0,1,0"/>
    <vehicle id="bus_92" type="bus" route="route_h_east_west_0" depart="697" color="0,1,0"/>
    <vehicle id="bus_192" type="bus" route="route_v_north_south_1" depart="699" color="0,1,0"/>
    <vehicle id="bus_292" type="bus" route="route_v_south_north_2" depart="701" color="0,1,0"/>
    <vehicle id="bus_17" type="bus" route="route_h_west_east_0" depart="702" color="0,1,0"/>
    <vehicle id="bus_267" type="bus" route="route_v_south_north_1" depart="702" color="0,1,0"/>
    <vehicle id="bus_142" type="bus" route="route_h_east_west_2" depart="705" color="0,1,0"/>
    <vehicle id="bus_167" type="bus" route="route_v_north_south_0" depart="707" color="0,1,0"/>
    <vehicle id="bus_117" type="bus" route="route_h_east_west_1" depart="708" color="0,1,0"/>
    <vehicle id="bus_242" type="bus" route="route_v_south_north_0" depart="708" color="0,1,0"/>
    <vehicle id="bus_293" type="bus" route="route_v_south_north_2" depart="732" color="0,1,0"/>
    <vehicle id="bus_218" type="bus" route="route_v_north_south_2" depart="733" color="0,1,0"/>
    <vehicle id="bus_118" type="bus" route="route_h_east_west_1" depart="735" color="0,1,0"/>
    <vehicle id="bus_168" type="bus" route="route_v_north_south_0" depart="736" color="0,1,0"/>
    <vehicle id="bus_243" type="bus" route="route_v_south_north_0" depart="737" color="0,1,0"/>
    <vehicle id="bus_18" type="bus" route="route_h_west_east_0" depart="740" color="0,1,0"/>
    <vehicle id="bus_193" type="bus" route="route_v_north_south_1" depart="742" color="0,1,0"/>
    <vehicle id="bus_68" type="bus" route="route_h_west_east_2" depart="744" color="0,1,0"/>
    <vehicle id="bus_143" type="bus" route="route_h_east_west_2" depart="744" color="0,1,0"/>
    <vehicle id="bus_43" type="bus" route="route_h_west_east_1" depart="745" color="0,1,0"/>
    <vehicle id="bus_268" type="bus" route="route_v_south_north_1" depart="745" color="0,1,0"/>
    <vehicle id="bus_93" type="bus" route="route_h_east_west_0" depart="749" color="0,1,0"/>
    <vehicle id="bus_44" type="bus" route="route_h_west_east_1" depart="773" color="0,1,0"/>
    <vehicle id="bus_119" type="bus" route="route_h_east_west_1" depart="773" color="0,1,0"/>
    <vehicle id="bus_194" type="bus" route="route_v_north_south_1" depart="774" color="0,1,0"/>
    <vehicle id="bus_244" type="bus" route="route_v_south_north_0" depart="774" color="0,1,0"/>
    <vehicle id="bus_269" type="bus" route="route_v_south_north_1" depart="775" color="0,1,0"/>
    <vehicle id="bus_94" type="bus" route="route_h_east_west_0" depart="776" color="0,1,0"/>
    <vehicle id="bus_69" type="bus" route="route_h_west_east_2" depart="778" color="0,1,0"/>
    <vehicle id="bus_19" type="bus" route="route_h_west_east_0" depart="779" color="0,1,0"/>
    <vehicle id="bus_294" type="bus" route="route_v_south_north_2" depart="781" color="0,1,0"/>
    <vehicle id="bus_169" type="bus" route="route_v_north_south_0" depart="782" color="0,1,0"/>
    <vehicle id="bus_219" type="bus" route="route_v_north_south_2" depart="786" color="0,1,0"/>
    <vehicle id="bus_144" type="bus" route="route_h_east_west_2" depart="790" color="0,1,0"/>
    <vehicle id="bus_295" type="bus" route="route_v_south_north_2" depart="810" color="0,1,0"/>
    <vehicle id="bus_45" type="bus" route="route_h_west_east_1" depart="811" color="0,1,0"/>
    <vehicle id="bus_120" type="bus" route="route_h_east_west_1" depart="814" color="0,1,0"/>
    <vehicle id="bus_270" type="bus" route="route_v_south_north_1" depart="816" color="0,1,0"/>
    <vehicle id="bus_220" type="bus" route="route_v_north_south_2" depart="818" color="0,1,0"/>
    <vehicle id="bus_70" type="bus" route="route_h_west_east_2" depart="819" color="0,1,0"/>
    <vehicle id="bus_170" type="bus" route="route_v_north_south_0" depart="819" color="0,1,0"/>
    <vehicle id="bus_95" type="bus" route="route_h_east_west_0" depart="823" color="0,1,0"/>
    <vehicle id="bus_145" type="bus" route="route_h_east_west_2" depart="825" color="0,1,0"/>
    <vehicle id="bus_20" type="bus" route="route_h_west_east_0" depart="826" color="0,1,0"/>
    <vehicle id="bus_195" type="bus" route="route_v_north_south_1" depart="827" color="0,1,0"/>
    <vehicle id="bus_245" type="bus" route="route_v_south_north_0" depart="827" color="0,1,0"/>
    <vehicle id="bus_246" type="bus" route="route_v_south_north_0" depart="851" color="0,1,0"/>
    <vehicle id="bus_71" type="bus" route="route_h_west_east_2" depart="855" color="0,1,0"/>
    <vehicle id="bus_96" type="bus" route="route_h_east_west_0" depart="859" color="0,1,0"/>
    <vehicle id="bus_271" type="bus" route="route_v_south_north_1" depart="859" color="0,1,0"/>
    <vehicle id="bus_121" type="bus" route="route_h_east_west_1" depart="862" color="0,1,0"/>
    <vehicle id="bus_196" type="bus" route="route_v_north_south_1" depart="863" color="0,1,0"/>
    <vehicle id="bus_221" type="bus" route="route_v_north_south_2" depart="863" color="0,1,0"/>
    <vehicle id="bus_296" type="bus" route="route_v_south_north_2" depart="864" color="0,1,0"/>
    <vehicle id="bus_171" type="bus" route="route_v_north_south_0" depart="865" color="0,1,0"/>
    <vehicle id="bus_21" type="bus" route="route_h_west_east_0" depart="869" color="0,1,0"/>
    <vehicle id="bus_46" type="bus" route="route_h_west_east_1" depart="870" color="0,1,0"/>
    <vehicle id="bus_146" type="bus" route="route_h_east_west_2" depart="870" color="0,1,0"/>
    <vehicle id="bus_72" type="bus" route="route_h_west_east_2" depart="891" color="0,1,0"/>
    <vehicle id="bus_172" type="bus" route="route_v_north_south_0" depart="891" color="0,1,0"/>
    <vehicle id="bus_22" type="bus" route="route_h_west_east_0" depart="895" color="0,1,0"/>
    <vehicle id="bus_297" type="bus" route="route_v_south_north_2" depart="898" color="0,1,0"/>
    <vehicle id="bus_222" type="bus" route="route_v_north_south_2" depart="899" color="0,1,0"/>
    <vehicle id="bus_272" type="bus" route="route_v_south_north_1" depart="903" color="0,1,0"/>
    <vehicle id="bus_197" type="bus" route="route_v_north_south_1" depart="904" color="0,1,0"/>
    <vehicle id="bus_122" type="bus" route="route_h_east_west_1" depart="905" color="0,1,0"/>
    <vehicle id="bus_97" type="bus" route="route_h_east_west_0" depart="907" color="0,1,0"/>
    <vehicle id="bus_47" type="bus" route="route_h_west_east_1" depart="908" color="0,1,0"/>
    <vehicle id="bus_147" type="bus" route="route_h_east_west_2" depart="908" color="0,1,0"/>
    <vehicle id="bus_247" type="bus" route="route_v_south_north_0" depart="909" color="0,1,0"/>
    <vehicle id="bus_48" type="bus" route="route_h_west_east_1" depart="932" color="0,1,0"/>
    <vehicle id="bus_123" type="bus" route="route_h_east_west_1" depart="933" color="0,1,0"/>
    <vehicle id="bus_98" type="bus" route="route_h_east_west_0" depart="939" color="0,1,0"/>