<?xml version="1.0" ?>
<routes xmlns:xsi="http://www.w3.org/2001/XMLSchema-instance" xsi:noNamespaceSchemaLocation="http://sumo.dlr.de/xsd/routes_file.xsd">
    <vType id="car" vClass="passenger" color="1,1,0" speedDev="0.1"/>
    <vType id="bus" vClass="bus" color="0,1,0" length="12" width="2.5" speedDev="0.05"/>
    <route id="route_ns" edges="north_in south_out"/>
    <route id="route_sn" edges="south_in north_out"/>
    <route id="route_ew" edges="east_in west_out"/>
    <route id="route_we" edges="west_in east_out"/>
    <route id="route_ne" edges="north_in east_out"/>
    <route id="route_nw" edges="north_in west_out"/>
    <route id="route_se" edges="south_in east_out"/>
    <route id="route_sw" edges="south_in west_out"/>
    <route id="route_en" edges="east_in north_out"/>
    <route id="route_es" edges="east_in south_out"/>
    <route id="route_wn" edges="west_in north_out"/>
    <route id="route_ws" edges="west_in south_out"/>
    <flow id="cars_route_en" type="car" route="route_en" begin="0" end="500" probability="0.3"/>
    <flow id="cars_route_es" type="car" route="route_es" begin="0" end="500" probability="0.3"/>
    <flow id="cars_route_ew" type="car" route="route_ew" begin="0" end="500" probability="0.3"/>
    <flow id="cars_route_ne" type="car" route="route_ne" begin="0" end="500" probability="0.3"/>
    <flow id="cars_route_ns" type="car" route="route_ns" begin="0" end="500" probability="0.3"/>
    <flow id="cars_route_nw" type="car" route="route_nw" begin="0" end="500" probability="0.3"/>
    <flow id="cars_route_se" type="car" route="route_se" begin="0" end="500" probability="0.3"/>
    <flow id="cars_route_sn" type="car" route="route_sn" begin="0" end="500" probability="0.3"/>
    <flow id="cars_route_sw" type="car" route="route_sw" begin="0" end="500" probability="0.3"/>
    <flow id="cars_route_we" type="car" route="route_we" begin="0" end="500" probability="0.3"/>
    <flow id="cars_route_wn" type="car" route="route_wn" begin="0" end="500" probability="0.3"/>
    <flow id="cars_route_ws" type="car" route="route_ws" begin="0" end="500" probability="0.3"/>
    <vehicle id="bus_50" type="bus" route="route_ew" depart="6" color="0,1,0"/>
    <vehicle id="bus_25" type="bus" route="route_sn" depart="12" color="0,1,0"/>
    <vehicle id="bus_75" type="bus" route="route_we" depart="13" color="0,1,0"/>
    <vehicle id="bus_0" type="bus" route="route_ns" depart="15" color="0,1,0"/>
    <vehicle id="bus_1" type="bus" route="route_ns" depart="27" color="0,1,0"/>
    <vehicle id="bus_51" type="bus" route="route_ew" depart="29" color="0,1,0"/>
    <vehicle id="bus_76" type="bus" route="route_we" depart="30" color="0,1,0"/>
    <vehicle id="bus_26" type="bus" route="route_sn" depart="34" color="0,1,0"/>
    <vehicle id="bus_2" type="bus" route="route_ns" depart="48" color="0,1,0"/>
    <vehicle id="bus_77" type="bus" route="route_we" depart="49" color="0,1,0"/>
    <vehicle id="bus_52" type="bus" route="route_ew" depart="53" color="0,1,0"/>
    <vehicle id="bus_27" type="bus" route="route_sn" depart="54" color="0,1,0"/>
    <vehicle id="bus_3" type="bus" route="route_ns" depart="66" color="0,1,0"/>
    <vehicle id="bus_28" type="bus" route="route_sn" depart="71" color="0,1,0"/>
    <vehicle id="bus_53" type="bus" route="route_ew" depart="71" color="0,1,0"/>
    <vehicle id="bus_78" type="bus" route="route_we" depart="75" color="0,1,0"/>
    <vehicle id="bus_54" type="bus" route="route_ew" depart="86" color="0,1,0"/>
    <vehicle id="bus_4" type="bus" route="route_ns" depart="90" color="0,1,0"/>
    <vehicle id="bus_29" type="bus" route="route_sn" depart="93" color="0,1,0"/>
    <vehicle id="bus_79" type="bus" route="route_we" depart="95" color="0,1,0"/>
    <vehicle id="bus_5" type="bus" route="route_ns" depart="107" color="0,1,0"/>
    <vehicle id="bus_80" type="bus" route="route_we" depart="109" color="0,1,0"/>
    <vehicle id="bus_55" type="bus" route="route_ew" depart="110" color="0,1,0"/>
    <vehicle id="bus_30" type="bus" route="route_sn" depart="112" color="0,1,0"/>
    <vehicle id="bus_6" type="bus" route="route_ns" depart="129" color="0,1,0"/>
    <vehicle id="bus_56" type="bus" route="route_ew" depart="129" color="0,1,0"/>
    <vehicle id="bus_31" type="bus" route="route_sn" depart="132" color="0,1,0"/>
    <vehicle id="bus_81" type="bus" route="route_we" depart="132" color="0,1,0"/>
    <vehicle id="bus_57" type="bus" route="route_ew" depart="145" color="0,1,0"/>
    <vehicle id="bus_82" type="bus" route="route_we" depart="149" color="0,1,0"/>
    <vehicle id="bus_7" type="bus" route="route_ns" depart="151" color="0,1,0"/>
    <vehicle id="bus_32" type="bus" route="route_sn" depart="153" color="0,1,0"/>
    <vehicle id="bus_83" type="bus" route="route_we" depart="169" color="0,1,0"/>
    <vehicle id="bus_58" type="bus" route="route_ew" depart="171" color="0,1,0"/>
    <vehicle id="bus_8" type="bus" route="route_ns" depart="174" color="0,1,0"/>
    <vehicle id="bus_33" type="bus" route="route_sn" depart="175" color="0,1,0"/>
    <vehicle id="bus_84" type="bus" route="route_we" depart="188" color="0,1,0"/>
    <vehicle id="bus_59" type="bus" route="route_ew" depart="191" color="0,1,0"/>
    <vehicle id="bus_9" type="bus" route="route_ns" depart="192" color="0,1,0"/>
    <vehicle id="bus_34" type="bus" route="route_sn" depart="194" color="0,1,0"/>
    <vehicle id="bus_85" type="bus" route="route_we" depart="206" color="0,1,0"/>
    <vehicle id="bus_10" type="bus" route="route_ns" depart="210" color="0,1,0"/>
    <vehicle id="bus_60" type="bus" route="route_ew" depart="211" color="0,1,0"/>
    <vehicle id="bus_35" type="bus" route="route_sn" depart="212" color="0,1,0"/>
    <vehicle id="bus_61" type="bus" route="route_ew" depart="226" color="0,1,0"/>
    <vehicle id="bus_86" type="bus" route="route_we" depart="226" color="0,1,0"/>
    <vehicle id="bus_11" type="bus" route="route_ns" depart="230" color="0,1,0"/>
    <vehicle id="bus_36" type="bus" route="route_sn" depart="232" color="0,1,0"/>
    <vehicle id="bus_62" type="bus" route="route_ew" depart="246" color="0,1,0"/>
    <vehicle id="bus_12" type="bus" route="route_ns" depart="249" color="0,1,0"/>
    <vehicle id="bus_37" type="bus" route="route_sn" depart="249" color="0,1,0"/>
    <vehicle id="bus_87" type="bus" route="route_we" depart="253" color="0,1,0"/>
    <vehicle id="bus_38" type="bus" route="route_sn" depart="266" color="0,1,0"/>
    <vehicle id="bus_63" type="bus" route="route_ew" depart="270" color="0,1,0"/>
    <vehicle id="bus_88" type="bus" route="route_we" depart="272" color="0,1,0"/>
    <vehicle id="bus_13" type="bus" route="route_ns" depart="274" color="0,1,0"/>
    <vehicle id="bus_14" type="bus" route="route_ns" depart="289" color="0,1,0"/>
    <vehicle id="bus_39" type="bus" route="route_sn" depart="292" color="0,1,0"/>
    <vehicle id="bus_89" type="bus" route="route_we" depart="293" color="0,1,0"/>
    <vehicle id="bus_64" type="bus" route="route_ew" depart="295" color="0,1,0"/>
    <vehicle id="bus_65" type="bus" route="route_ew" depart="307" color="0,1,0"/>
    <vehicle id="bus_40" type="bus" route="route_sn" depart="309" color="0,1,0"/>
    <vehicle id="bus_90" type="bus" route="route_we" depart="312" color="0,1,0"/>
    <vehicle id="bus_15" type="bus" route="route_ns" depart="314" color="0,1,0"/>
    <vehicle id="bus_41" type="bus" route="route_sn" depart="325" color="0,1,0"/>
    <vehicle id="bus_91" type="bus" route="route_we" depart="325" color="0,1,0"/>
    <vehicle id="bus_66" type="bus" route="route_ew" depart="332" color="0,1,0"/>
    <vehicle id="bus_16" type="bus" route="route_ns" depart="334" color="0,1,0"/>
    <vehicle id="bus_67" type="bus" route="route_ew" depart="345" color="0,1,0"/>
    <vehicle id="bus_17" type="bus" route="route_ns" depart="354" color="0,1,0"/>
    <vehicle id="bus_92" type="bus" route="route_we" depart="354" color="0,1,0"/>
    <vehicle id="bus_42" type="bus" route="route_sn" depart="355" color="0,1,0"/>
    <vehicle id="bus_68" type="bus" route="route_ew" depart="365" color="0,1,0"/>
    <vehicle id="bus_93" type="bus" route="route_we" depart="366" color="0,1,0"/>
    <vehicle id="bus_18" type="bus" route="route_ns" depart="368" color="0,1,0"/>
    <vehicle id="bus_43" type="bus" route="route_sn" depart="371" color="0,1,0"/>
    <vehicle id="bus_44" type="bus" route="route_sn" depart="385" color="0,1,0"/>
    <vehicle id="bus_69" type="bus" route="route_ew" depart="385" color="0,1,0"/>
    <vehicle id="bus_94" type="bus" route="route_we" depart="387" color="0,1,0"/>
    <vehicle id="bus_19" type="bus" route="route_ns" depart="394" color="0,1,0"/>
    <vehicle id="bus_20" type="bus" route="route_ns" depart="405" color="0,1,0"/>
    <vehicle id="bus_95" type="bus" route="route_we" depart="405" color="0,1,0"/>
    <vehicle id="bus_45" type="bus" route="route_sn" depart="407" color="0,1,0"/>
    <vehicle id="bus_70" type="bus" route="route_ew" depart="411" color="0,1,0"/>
    <vehicle id="bus_71" type="bus" route="route_ew" depart="426" color="0,1,0"/>
    <vehicle id="bus_46" type="bus" route="route_sn" depart="427" color="0,1,0"/>
    <vehicle id="bus_21" type="bus" route="route_ns" depart="430" color="0,1,0"/>
    <vehicle id="bus_96" type="bus" route="route_we" depart="431" color="0,1,0"/>
    <vehicle id="bus_97" type="bus" route="route_we" depart="446" color="0,1,0"/>
    <vehicle id="bus_22" type="bus" route="route_ns" depart="451" color="0,1,0"/>
    <vehicle id="bus_72" type="bus" route="route_ew" depart="451" color="0,1,0"/>
    <vehicle id="bus_47" type="bus" route="route_sn" depart="453" color="0,1,0"/>
    <vehicle id="bus_73" type="bus" route="route_ew" depart="465" color="0,1,0"/>
    <vehicle id="bus_48" type="bus" route="route_sn" depart="473" color="0,1,0"/>
    <vehicle id="bus_98" type="bus" route="route_we" depart="473" color="0,1,0"/>
    <vehicle id="bus_23" type="bus" route="route_ns" depart="475" color="0,1,0"/>
    <vehicle id="bus_24" type="bus" route="route_ns" depart="485" color="0,1,0"/>
    <vehicle id="bus_49" type="bus" route="route_sn" depart="486" color="0,1,0"/>
    <vehicle id="bus_99" type="bus" route="route_we" depart="494" color="0,1,0"/>
    <vehicle id="bus_74" type="bus" route="route_ew" depart="495" color="0,1,0"/>
</routes>
