<?xml version="1.0" ?>
<routes xmlns:xsi="http://www.w3.org/2001/XMLSchema-instance" xsi:noNamespaceSchemaLocation="http://sumo.dlr.de/xsd/routes_file.xsd">
    <vType id="car" vClass="passenger" color="1,1,0" speedDev="0.1"/>
    <vType id="bus" vClass="bus" color="0,1,0" length="12" width="2.5" speedDev="0.05"/>
    <route id="route_ns" edges="north_in south_out"/>
    <route id="route_sn" edges="south_in north_out"/>
    <route id="route_ew" edges="east_in west_out"/>
    <route id="route_we" edges="west_in east_out"/>
    <route id="route_ne" edges="north_in east_out"/>
    <route id="route_nw" edges="north_in west_out"/>
    <route id="route_se" edges="south_in east_out"/>
    <route id="route_sw" edges="south_in west_out"/>
    <route id="route_en" edges="east_in north_out"/>
    <route id="route_es" edges="east_in south_out"/>
    <route id="route_wn" edges="west_in north_out"/>
    <route id="route_ws" edges="west_in south_out"/>
    <flow id="cars_route_en" type="car" route="route_en" begin="0" end="500" probability="0.2261744956088634"/>
    <flow id="cars_route_es" type="car" route="route_es" begin="0" end="500" probability="0.2261744956088634"/>
    <flow id="cars_route_ew" type="car" route="route_ew" begin="0" end="500" probability="0.2261744956088634"/>
    <flow id="cars_route_ne" type="car" route="route_ne" begin="0" end="500" probability="0.2261744956088634"/>
    <flow id="cars_route_ns" type="car" route="route_ns" begin="0" end="500" probability="0.2261744956088634"/>
    <flow id="cars_route_nw" type="car" route="route_nw" begin="0" end="500" probability="0.2261744956088634"/>
    <flow id="cars_route_se" type="car" route="route_se" begin="0" end="500" probability="0.2261744956088634"/>
    <flow id="cars_route_sn" type="car" route="route_sn" begin="0" end="500" probability="0.2261744956088634"/>
    <flow id="cars_route_sw" type="car" route="route_sw" begin="0" end="500" probability="0.2261744956088634"/>
    <flow id="cars_route_we" type="car" route="route_we" begin="0" end="500" probability="0.2261744956088634"/>
    <flow id="cars_route_wn" type="car" route="route_wn" begin="0" end="500" probability="0.2261744956088634"/>
    <flow id="cars_route_ws" type="car" route="route_ws" begin="0" end="500" probability="0.2261744956088634"/>
    <vehicle id="bus_19" type="bus" route="route_sn" depart="10" color="0,1,0"/>
    <vehicle id="bus_57" type="bus" route="route_we" depart="10" color="0,1,0"/>
    <vehicle id="bus_0" type="bus" route="route_ns" depart="15" color="0,1,0"/>
    <vehicle id="bus_38" type="bus" route="route_ew" depart="15" color="0,1,0"/>
    <vehicle id="bus_58" type="bus" route="route_we" depart="32" color="0,1,0"/>
    <vehicle id="bus_20" type="bus" route="route_sn" depart="37" color="0,1,0"/>
    <vehicle id="bus_1" type="bus" route="route_ns" depart="39" color="0,1,0"/>
    <vehicle id="bus_39" type="bus" route="route_ew" depart="40" color="0,1,0"/>
    <vehicle id="bus_59" type="bus" route="route_we" depart="60" color="0,1,0"/>
    <vehicle id="bus_40" type="bus" route="route_ew" depart="61" color="0,1,0"/>
    <vehicle id="bus_21" type="bus" route="route_sn" depart="62" color="0,1,0"/>
    <vehicle id="bus_2" type="bus" route="route_ns" depart="63" color="0,1,0"/>
    <vehicle id="bus_22" type="bus" route="route_sn" depart="88" color="0,1,0"/>
    <vehicle id="bus_60" type="bus" route="route_we" depart="88" color="0,1,0"/>
    <vehicle id="bus_3" type="bus" route="route_ns" depart="95" color="0,1,0"/>
    <vehicle id="bus_41" type="bus" route="route_ew" depart="95" color="0,1,0"/>
    <vehicle id="bus_4" type="bus" route="route_ns" depart="118" color="0,1,0"/>
    <vehicle id="bus_61" type="bus" route="route_we" depart="120" color="0,1,0"/>
    <vehicle id="bus_23" type="bus" route="route_sn" depart="121" color="0,1,0"/>
    <vehicle id="bus_42" type="bus" route="route_ew" depart="121" color="0,1,0"/>
    <vehicle id="bus_24" type="bus" route="route_sn" depart="143" color="0,1,0"/>
    <vehicle id="bus_62" type="bus" route="route_we" depart="147" color="0,1,0"/>
    <vehicle id="bus_5" type="bus" route="route_ns" depart="149" color="0,1,0"/>
    <vehicle id="bus_43" type="bus" route="route_ew" depart="150" color="0,1,0"/>
    <vehicle id="bus_6" type="bus" route="route_ns" depart="168" color="0,1,0"/>
    <vehicle id="bus_25" type="bus" route="route_sn" depart="168" color="0,1,0"/>
    <vehicle id="bus_44" type="bus" route="route_ew" depart="169" color="0,1,0"/>
    <vehicle id="bus_63" type="bus" route="route_we" depart="170" color="0,1,0"/>
    <vehicle id="bus_45" type="bus" route="route_ew" depart="198" color="0,1,0"/>
    <vehicle id="bus_7" type="bus" route="route_ns" depart="199" color="0,1,0"/>
    <vehicle id="bus_64" type="bus" route="route_we" depart="201" color="0,1,0"/>
    <vehicle id="bus_26" type="bus" route="route_sn" depart="202" color="0,1,0"/>
    <vehicle id="bus_46" type="bus" route="route_ew" depart="221" color="0,1,0"/>
    <vehicle id="bus_8" type="bus" route="route_ns" depart="222" color="0,1,0"/>
    <vehicle id="bus_27" type="bus" route="route_sn" depart="222" color="0,1,0"/>
    <vehicle id="bus_65" type="bus" route="route_we" depart="228" color="0,1,0"/>
    <vehicle id="bus_28" type="bus" route="route_sn" depart="249" color="0,1,0"/>
    <vehicle id="bus_9" type="bus" route="route_ns" depart="251" color="0,1,0"/>
    <vehicle id="bus_47" type="bus" route="route_ew" depart="253" color="0,1,0"/>
    <vehicle id="bus_66" type="bus" route="route_we" depart="258" color="0,1,0"/>
    <vehicle id="bus_10" type="bus" route="route_ns" depart="276" color="0,1,0"/>
    <vehicle id="bus_48" type="bus" route="route_ew" depart="276" color="0,1,0"/>
    <vehicle id="bus_29" type="bus" route="route_sn" depart="279" color="0,1,0"/>
    <vehicle id="bus_67" type="bus" route="route_we" depart="283" color="0,1,0"/>
    <vehicle id="bus_30" type="bus" route="route_sn" depart="303" color="0,1,0"/>
    <vehicle id="bus_11" type="bus" route="route_ns" depart="304" color="0,1,0"/>
    <vehicle id="bus_49" type="bus" route="route_ew" depart="305" color="0,1,0"/>
    <vehicle id="bus_68" type="bus" route="route_we" depart="311" color="0,1,0"/>
    <vehicle id="bus_69" type="bus" route="route_we" depart="331" color="0,1,0"/>
    <vehicle id="bus_50" type="bus" route="route_ew" depart="333" color="0,1,0"/>
    <vehicle id="bus_12" type="bus" route="route_ns" depart="336" color="0,1,0"/>
    <vehicle id="bus_31" type="bus" route="route_sn" depart="336" color="0,1,0"/>
    <vehicle id="bus_32" type="bus" route="route_sn" depart="359" color="0,1,0"/>
    <vehicle id="bus_51" type="bus" route="route_ew" depart="359" color="0,1,0"/>
    <vehicle id="bus_70" type="bus" route="route_we" depart="359" color="0,1,0"/>
    <vehicle id="bus_13" type="bus" route="route_ns" depart="360" color="0,1,0"/>
    <vehicle id="bus_52" type="bus" route="route_ew" depart="386" color="0,1,0"/>
    <vehicle id="bus_14" type="bus" route="route_ns" depart="388" color="0,1,0"/>
    <vehicle id="bus_33" type="bus" route="route_sn" depart="388" color="0,1,0"/>
    <vehicle id="bus_71" type="bus" route="route_we" depart="393" color="0,1,0"/>
    <vehicle id="bus_34" type="bus" route="route_sn" depart="411" color="0,1,0"/>
    <vehicle id="bus_72" type="bus" route="route_we" depart="414" color="0,1,0"/>
    <vehicle id="bus_53" type="bus" route="route_ew" depart="417" color="0,1,0"/>
    <vehicle id="bus_15" type="bus" route="route_ns" depart="419" color="0,1,0"/>
    <vehicle id="bus_73" type="bus" route="route_we" depart="438" color="0,1,0"/>
    <vehicle id="bus_35" type="bus" route="route_sn" depart="440" color="0,1,0"/>
    <vehicle id="bus_16" type="bus" route="route_ns" depart="446" color="0,1,0"/>
    <vehicle id="bus_54" type="bus" route="route_ew" depart="447" color="0,1,0"/>
    <vehicle id="bus_55" type="bus" route="route_ew" depart="470" color="0,1,0"/>
    <vehicle id="bus_36" type="bus" route="route_sn" depart="471" color="0,1,0"/>
    <vehicle id="bus_74" type="bus" route="route_we" depart="472" color="0,1,0"/>
    <vehicle id="bus_17" type="bus" route="route_ns" depart="474" color="0,1,0"/>
    <vehicle id="bus_56" type="bus" route="route_ew" depart="492" color="0,1,0"/>
    <vehicle id="bus_75" type="bus" route="route_we" depart="496" color="0,1,0"/>
    <vehicle id="bus_18" type="bus" route="route_ns" depart="499" color="0,1,0"/>
    <vehicle id="bus_37" type="bus" route="route_sn" depart="500" color="0,1,0"/>
</routes>
